
 + + + + + + + + + + + + + + + + + + + + + + + + + + + + + + + + + + + + + + + +
 + + + + + + + + + + + + + + + + + + + + + + + + + + + + + + + + + + + + + + + +
 + +                                                                         + +
 + +                      ASPEN PLUS CALCULATION HISTORY                     + +
 + +                                                                         + +
 + + + + + + + + + + + + + + + + + + + + + + + + + + + + + + + + + + + + + + + +
 + + + + + + + + + + + + + + + + + + + + + + + + + + + + + + + + + + + + + + + +

 ASPEN PLUS IS A TRADEMARK OF           HOTLINE:
 ASPEN TECHNOLOGY, INC.                 U.S.A. 888/996-7100
 781/221-6400                           EUROPE (44) 1189-226555

 PLATFORM: WIN-X64                                       FEBRUARY 6, 2025    
 VERSION: 40.0   Build 359                               THURSDAY    
 INSTALLATION:                                           7:51:33 P.M.        

 THIS COPY OF ASPEN PLUS LICENSED TO TECHNICAL UNIVERSITY BER        


      ASPEN PLUS (R) IS A PROPRIETARY PRODUCT OF ASPEN TECHNOLOGY, INC.
      (ASPENTECH), AND MAY BE USED ONLY UNDER AGREEMENT WITH ASPENTECH.
      RESTRICTED RIGHTS LEGEND:  USE, REPRODUCTION, OR DISCLOSURE BY THE
      U.S. GOVERNMENT IS SUBJECT TO RESTRICTIONS SET FORTH IN 
      (i) FAR 52.227-14, Alt. III, (ii) FAR 52.227-19, (iii) DFARS 
      252.227-7013(c)(1)(ii), or (iv) THE ACCOMPANYING LICENSE AGREEMENT,
      AS APPLICABLE. FOR PURPOSES OF THE FAR, THIS SOFTWARE SHALL BE DEEMED
      TO BE "UNPUBLISHED" AND LICENSED WITH DISCLOSURE PROHIBITIONS.
      CONTRACTOR/SUBCONTRACTOR: ASPEN TECHNOLOGY, INC. 20 CROSBY DRIVE,
      BEDFORD, MA 01730.
 *** INPUT SUMMARY ***

 >>CURRENT RUN

   ORIGINAL RUN                           FEBRUARY 6, 2025    
   7:51:33 P.M.                           THURSDAY    
   INPUT FILE: _5101npg.inm
   RUN ID : _5101npg
          1    ;
          2    ;Input file created by Aspen Plus Rel. 40.0 at 19:51:32 Thu Feb 6, 2025
          3    ;Directory Z:\mueller\03_ExerPy\github\exerpy\examples\ccpp  Runid CCPP
          4    ;
          5
          6
          7    DYNAMICS
          8        DYNAMICS RESULTS=ON
          9
         10    IN-UNITS SI ENERGY=kJ ENTHALPY-FLO=kW MOLE-HEAT-CA='kJ/kmol-K'  &
         11            POWER=kW PRESSURE=bar TEMPERATURE=C MOLE-ENTHALP='kJ/kmol'  &
         12            MOLE-ENTROPY='kJ/kmol-K' ELEC-POWER=kW WORK=kJ HEAT=kJ  &
         13            PDROP=bar SHORT-LENGTH=mm
         14
         15    DEF-STREAMS CONVEN ALL
         16
         17    SIM-OPTIONS MASS-BAL-CHE=YES REF-TEMP=15. REF-PRES=1.013
         18
         19    MODEL-OPTION
         20
         21    DATABANKS 'APV140 PURE40' / 'APV140 AQUEOUS' / 'APV140 SOLIDS' &
         22             / 'APV140 INORGANIC' / 'APESV140 AP-EOS' /  &
         23            'NISTV140 NIST-TRC' / NOASPENPCD
         24
         25    PROP-SOURCES 'APV140 PURE40' / 'APV140 AQUEOUS' /  &
         26            'APV140 SOLIDS' / 'APV140 INORGANIC' / 'APESV140 AP-EOS' &
         27             / 'NISTV140 NIST-TRC'
         28
         29    COMPONENTS
         30        H2O H2O /
         31        N2 N2 /
         32        O2 O2 /
         33        CO2 CO2 /
         34        AR AR /
         35        CH4 CH4
         36
         37    ADA-SETUP
         38        ADA-SETUP PROCEDURE=REL9
         39
         40    SOLVE
         41        RUN-MODE MODE=SIM
         42
         43    FLOWSHEET
         44        BLOCK COMP IN=1 OUT=2 W1
         45        BLOCK CC IN=2 3 OUT=4
         46        BLOCK GT IN=4 W1 OUT=5 W2
         47        BLOCK GEN1 IN=W2 OUT=E1
         48        BLOCK GEN2 IN=W5 OUT=E2
         49
         50    FLOWSHEET STEAMCYC
         51        BLOCK SH IN=5 23 OUT=6 9
         52        BLOCK EVA IN=6 22 OUT=7 23
         53        BLOCK ECO IN=7 21 OUT=8 22
         54        BLOCK ST1 IN=9 OUT=120 W4
         55        BLOCK ST-SPLIT IN=120 OUT=12 10 11
         56        BLOCK ST2 IN=12 W4 OUT=13 W5
         57        BLOCK COND IN=13 14 OUT=16 15
         58        BLOCK PUMP1 IN=16 OUT=17 E3
         59        BLOCK MIX IN=17 18 OUT=19
         60        BLOCK HC IN=11 OUT=18
         61        BLOCK DEA IN=10 19 OUT=20
         62        BLOCK PUMP2 IN=20 OUT=21 E4
         63        BLOCK POWER IN=E1 E2 E3 E4 OUT=ETOT
         64
         65    PROPERTIES IDEAL FREE-WATER=IAPWS-95
         66        PROPERTIES IAPWS-95 STEAMCYC FREE-WATER=IAPWS-95  &
         67            SOLU-WATER=3 TRUE-COMPS=YES
         68
         69    PROP-SET EXERGYMS EXERGYMS UNITS='kJ/kg' SUBSTREAM=MIXED
         70
         71    PROP-SET H0-S0-ML HMX SMX SUBSTREAM=MIXED TEMP=15. PRES=1.013
         72
         73    PROP-SET HA-SA-ML HMX SMX SUBSTREAM=MIXED TEMP=15.
         74
         75    STREAM 1
         76        SUBSTREAM MIXED TEMP=15. PRES=1.013 MASS-FLOW=637.59120508
         77        MOLE-FRAC H2O 0.01014641 / N2 0.77300634 / O2 0.20732852 / &
         78            CO2 0.00026058 / AR 0.00925814
         79
         80    STREAM 3
         81        SUBSTREAM MIXED TEMP=15. PRES=15.51 MASS-FLOW=12.36566625
         82        MOLE-FRAC CH4 1.
         83
         84    STREAM 14
         85        SUBSTREAM MIXED TEMP=15. PRES=1.013 MASS-FLOW=1180.717
         86        MASS-FRAC H2O 1.
         87
         88    STREAM 21
         89        SUBSTREAM MIXED TEMP=180.70616396 PRES=50.07  &
         90            MASS-FLOW=80.727802132
         91        MOLE-FRAC H2O 1.
         92
         93    DEF-STREAMS WORK E1
         94
         95    DEF-STREAMS WORK E2
         96
         97    DEF-STREAMS WORK E3
         98
         99    DEF-STREAMS WORK E4
        100
        101    DEF-STREAMS WORK ETOT
        102
        103    DEF-STREAMS WORK W1
        104
        105    DEF-STREAMS WORK W2
        106
        107    DEF-STREAMS WORK W4
        108
        109    DEF-STREAMS WORK W5
        110
        111    BLOCK DEA MIXER
        112        PARAM PRES=10.
        113
        114    BLOCK MIX MIXER
        115        PARAM
        116
        117    BLOCK POWER MIXER
        118
        119    BLOCK ST-SPLIT FSPLIT
        120        FRAC 10 0.108809 / 11 0.518593
        121
        122    BLOCK HC HEATER
        123        PARAM PRES=-5. DEGSUB=10. DPPARMOPT=NO
        124
        125    BLOCK COND HEATX
        126        PARAM DELT-COLD=5. CALC-TYPE=DESIGN U-OPTION=PHASE  &
        127            F-OPTION=CONSTANT CALC-METHOD=SHORTCUT
        128        FEEDS HOT=13 COLD=14
        129        OUTLETS-HOT 16
        130        OUTLETS-COLD 15
        131        HOT-SIDE DP-OPTION=CONSTANT DPPARMOPT=NO
        132        COLD-SIDE DP-OPTION=CONSTANT DPPARMOPT=NO
        133        TQ-PARAM CURVE=YES
        134
        135    BLOCK ECO HEATX
        136        PARAM T-COLD=258. CALC-TYPE=DESIGN PRES-HOT=-0.007  &
        137            PRES-COLD=-0.02 U-OPTION=PHASE F-OPTION=CONSTANT  &
        138            CALC-METHOD=SHORTCUT
        139        FEEDS HOT=7 COLD=21
        140        OUTLETS-HOT 8
        141        OUTLETS-COLD 22
        142        PROPERTIES IDEAL SOLU-WATER=3 TRUE-COMPS=YES / IAPWS-95  &
        143            FREE-WATER=IAPWS-95 SOLU-WATER=3 TRUE-COMPS=YES
        144        HOT-SIDE DP-OPTION=CONSTANT DPPARMOPT=NO
        145        COLD-SIDE DP-OPTION=CONSTANT DPPARMOPT=NO
        146        TQ-PARAM CURVE=YES
        147
        148    BLOCK EVA HEATX
        149        PARAM VFRAC-COLD=1. CALC-TYPE=DESIGN PRES-HOT=-0.007  &
        150            MIN-TAPP=10. U-OPTION=PHASE F-OPTION=CONSTANT  &
        151            CALC-METHOD=SHORTCUT
        152        FEEDS HOT=6 COLD=22
        153        OUTLETS-HOT 7
        154        OUTLETS-COLD 23
        155        PROPERTIES IDEAL SOLU-WATER=3 TRUE-COMPS=YES / IAPWS-95  &
        156            FREE-WATER=IAPWS-95 SOLU-WATER=3 TRUE-COMPS=YES
        157        HOT-SIDE DP-OPTION=CONSTANT DPPARMOPT=NO
        158        COLD-SIDE DP-OPTION=CONSTANT DPPARMOPT=NO
        159        TQ-PARAM CURVE=YES
        160
        161    BLOCK SH HEATX
        162        PARAM DELT-COLD=25. CALC-TYPE=DESIGN PRES-HOT=-0.007  &
        163            PRES-COLD=-0.05 MIN-TAPP=25. U-OPTION=PHASE  &
        164            F-OPTION=CONSTANT CALC-METHOD=SHORTCUT
        165        FEEDS HOT=5 COLD=23
        166        OUTLETS-HOT 6
        167        OUTLETS-COLD 9
        168        PROPERTIES IDEAL SOLU-WATER=3 TRUE-COMPS=YES / IAPWS-95  &
        169            FREE-WATER=IAPWS-95 SOLU-WATER=3 TRUE-COMPS=YES
        170        HOT-SIDE DP-OPTION=CONSTANT DPPARMOPT=NO
        171        COLD-SIDE DP-OPTION=CONSTANT DPPARMOPT=NO
        172        TQ-PARAM CURVE=YES
        173
        174    BLOCK CC RSTOIC
        175        PARAM PRES=-0.51 DUTY=0. COMBUSTION=NO
        176        STOIC 1 MIXED CH4 -1. / O2 -2. / CO2 1. / H2O 2.
        177        CONV 1 MIXED CH4 1.
        178
        179    BLOCK PUMP1 PUMP
        180        PARAM PRES=10. EFF=0.8 DEFF=0.985 PUMP-TYPE=PUMP
        181
        182    BLOCK PUMP2 PUMP
        183        PARAM PRES=50.07 EFF=0.985 DEFF=0.985
        184
        185    BLOCK COMP COMPR
        186        PARAM TYPE=ISENTROPIC PRES=15.51 SEFF=0.9 MEFF=1.  &
        187            SB-MAXIT=30 SB-TOL=0.0001
        188
        189    BLOCK GT COMPR
        190        PARAM TYPE=ISENTROPIC PRES=1.034 SEFF=0.92 MEFF=1.  &
        191            SB-MAXIT=30 SB-TOL=0.0001 MODEL-TYPE=TURBINE
        192        PERFOR-PARAM CALC-SPEED=NO
        193
        194    BLOCK ST1 COMPR
        195        PARAM TYPE=ISENTROPIC PRES=15. SEFF=0.93 MEFF=1.  &
        196            SB-MAXIT=30 SB-TOL=0.0001 MODEL-TYPE=TURBINE
        197        PERFOR-PARAM CALC-SPEED=NO
        198
        199    BLOCK ST2 COMPR
        200        PARAM TYPE=ISENTROPIC PRES=0.05 SEFF=0.89 MEFF=1. NPHASE=2  &
        201            SB-MAXIT=30 SB-TOL=0.0001 MODEL-TYPE=TURBINE
        202        PERFOR-PARAM CALC-SPEED=NO
        203        BLOCK-OPTION FREE-WATER=NO
        204
        205    BLOCK GEN1 MULT
        206        PARAM FACTOR=0.986
        207
        208    BLOCK GEN2 MULT
        209        PARAM FACTOR=0.986
        210
        211    DESIGN-SPEC CTRL1
        212        DEFINE TINGT STREAM-VAR STREAM=4 SUBSTREAM=MIXED  &
        213            VARIABLE=TEMP UOM="C"
        214        SPEC "TINGT" TO "1150"
        215        TOL-SPEC "0.00001"
        216        VARY STREAM-VAR STREAM=1 SUBSTREAM=MIXED VARIABLE=MASS-FLOW  &
        217            UOM="kg/sec"
        218        LIMITS "600" "800"
        219
        220    DESIGN-SPEC CTRL2
        221        DEFINE ETOT INFO-VAR INFO=WORK VARIABLE=POWER STREAM=ETOT  &
        222            UOM="kW"
        223        SPEC "ETOT" TO "-300000"
        224        TOL-SPEC "0.001"
        225        VARY STREAM-VAR STREAM=3 SUBSTREAM=MIXED VARIABLE=MASS-FLOW  &
        226            UOM="kg/sec"
        227        LIMITS "1" "20"
        228
        229    DESIGN-SPEC CTRL3
        230        DEFINE H1 BLOCK-VAR BLOCK=HC VARIABLE=QCALC SENTENCE=PARAM  &
        231            UOM="kW"
        232        SPEC "H1" TO "-100000"
        233        TOL-SPEC "0.001"
        234        VARY BLOCK-VAR BLOCK=ST-SPLIT SENTENCE=FRAC VARIABLE=FRAC  &
        235            ID1=11
        236        LIMITS "0.51" "0.52"
        237
        238    DESIGN-SPEC CTRL4
        239        DEFINE VFRAC20 STREAM-VAR STREAM=20 SUBSTREAM=MIXED  &
        240            VARIABLE=VFRAC
        241        SPEC "VFRAC20" TO "0"
        242        TOL-SPEC "0.00001"
        243        VARY BLOCK-VAR BLOCK=ST-SPLIT SENTENCE=FRAC VARIABLE=FRAC  &
        244            ID1=10
        245        LIMITS "0.1" "0.11"
        246
        247    DESIGN-SPEC CTRL5
        248        DEFINE LFRAC16 STREAM-VAR STREAM=16 SUBSTREAM=MIXED  &
        249            VARIABLE=LFRAC
        250        SPEC "LFRAC16" TO "1"
        251        TOL-SPEC "0.000001"
        252        VARY STREAM-VAR STREAM=14 SUBSTREAM=MIXED VARIABLE=MASS-FLOW  &
        253            UOM="kg/sec"
        254        LIMITS "1000" "1300" STEP-SIZE=1E-05
        255
        256    EO-CONV-OPTI
        257
        258    CONV-OPTIONS
        259        PARAM TEAR-METHOD=WEGSTEIN SPEC-METHOD=SECANT
        260
        261    TEAR
        262        TEAR 21
        263
        264    STREAM-REPOR MOLEFLOW PROPERTIES=H0-S0-ML HA-SA-ML EXERGYMS
        265
        266    PROPERTY-REP PCES
        267    ;
        268    ;
        269    ;
        270    ;
        271    ;
 *** INPUT TRANSLATOR MESSAGES ***

  *** THIS RUN USES THE PROPERTIES ENTERPRISE DATABASE ***
      SQLLOCALDB.APESV140 : (DATAVERSION - 40.0.0.13)                         
      SQLLOCALDB.APV140 : (DATAVERSION - 40.0.0.13)                           
      SQLLOCALDB.FACTV140 : (DATAVERSION - 40.0.0.12)                         
      SQLLOCALDB.NISTV140 : (DATAVERSION - 40.0.0.12)                         
 
 DESIGN SPEC: CTRL1 WILL BE INTERPRETED 
 DESIGN SPEC: CTRL2 WILL BE INTERPRETED 
 DESIGN SPEC: CTRL3 WILL BE INTERPRETED 
 DESIGN SPEC: CTRL4 WILL BE INTERPRETED 
 DESIGN SPEC: CTRL5 WILL BE INTERPRETED 
 

 PDF updated                                                                      TIME =      1.58

 *** CALCULATION TRACE ***


 *** FLOWSHEET ANALYSIS MESSAGES ***

 FLOWSHEET CONNECTIVITY BY STREAMS       

 FLOWSHEET SECTION GLOBAL  
   STREAM     SOURCE     DEST           STREAM     SOURCE     DEST
   1          ----       COMP           3          ----       CC      
   2          COMP       CC             W1         COMP       GT      
   4          CC         GT             5          GT         SH      
   W2         GT         GEN1           E1         GEN1       POWER   
   E2         GEN2       POWER                                        

 FLOWSHEET SECTION STEAMCYC
   STREAM     SOURCE     DEST           STREAM     SOURCE     DEST
   14         ----       COND           6          SH         EVA     
   9          SH         ST1            7          EVA        ECO     
   23         EVA        SH             8          ECO        ----    
   22         ECO        EVA            120        ST1        ST-SPLIT
   W4         ST1        ST2            12         ST-SPLIT   ST2     
   10         ST-SPLIT   DEA            11         ST-SPLIT   HC      
   13         ST2        COND           W5         ST2        GEN2    
   16         COND       PUMP1          15         COND       ----    
   17         PUMP1      MIX            E3         PUMP1      POWER   
   19         MIX        DEA            18         HC         MIX     
   20         DEA        PUMP2          21         PUMP2      ECO     
   E4         PUMP2      POWER          ETOT       POWER      ----    

 FLOWSHEET CONNECTIVITY BY BLOCKS        

 FLOWSHEET SECTION GLOBAL  
   BLOCK        INLETS                         OUTLETS
   COMP         1                              2 W1                        
   CC           2 3                            4                           
   GT           4 W1                           5 W2                        
   GEN1         W2                             E1                          
   GEN2         W5                             E2                          

 FLOWSHEET SECTION STEAMCYC
   BLOCK        INLETS                         OUTLETS
   SH           5 23                           6 9                         
   EVA          6 22                           7 23                        
   ECO          7 21                           8 22                        
   ST1          9                              120 W4                      
   ST-SPLIT     120                            12 10 11                    
   ST2          12 W4                          13 W5                       
   COND         13 14                          16 15                       
   PUMP1        16                             17 E3                       
   MIX          17 18                          19                          
   HC           11                             18                          
   DEA          10 19                          20                          
   PUMP2        20                             21 E4                       
   POWER        E1 E2 E3 E4                    ETOT                        

      BLOCK $OLVER01 (METHOD: WEGSTEIN) HAS BEEN DEFINED TO CONVERGE
               STREAMS: 6         7         21

      BLOCK $OLVER02 (METHOD: SECANT  ) HAS BEEN DEFINED TO CONVERGE
                SPECS : CTRL1

      BLOCK $OLVER03 (METHOD: SECANT  ) HAS BEEN DEFINED TO CONVERGE
                SPECS : CTRL2

      BLOCK $OLVER04 (METHOD: SECANT  ) HAS BEEN DEFINED TO CONVERGE
                SPECS : CTRL3

      BLOCK $OLVER05 (METHOD: SECANT  ) HAS BEEN DEFINED TO CONVERGE
                SPECS : CTRL4

      BLOCK $OLVER06 (METHOD: SECANT  ) HAS BEEN DEFINED TO CONVERGE
                SPECS : CTRL5

      COMPUTATION ORDER FOR THE FLOWSHEET IS:
      $OLVER01 ECO EVA 
      |  $OLVER03 
      |  |  $OLVER02 COMP CC 
      |  |  (RETURN $OLVER02) 
      |  |  GT SH ST1 
      |  |  $OLVER05 
      |  |  |  $OLVER04 ST-SPLIT HC 
      |  |  |  (RETURN $OLVER04) 
      |  |  |  ST2 
      |  |  |  $OLVER06 COND 
      |  |  |  (RETURN $OLVER06) 
      |  |  |  PUMP1 MIX DEA 
      |  |  (RETURN $OLVER05) 
      |  |  GEN2 PUMP2 GEN1 POWER 
      |  (RETURN $OLVER03) 
      (RETURN $OLVER01) 

Calculations begin                                                              time      0.51


 SIMULATION CALCULATIONS BEGIN                                                    TIME =      0.51

      CONVERGENCE BLOCK $OLVER01  METHOD: WEGSTEIN                                TIME =      0.51
      ITER   0 For Tear Streams: 6         7         21

      ENTHALPY CALCULATION FOR INLET STREAM 21 OF BLOCK ECO                       TIME =      0.51

      UOS BLOCK ECO      MODEL: HEATX                                             TIME =      0.52

  *   WARNING WHILE EXECUTING UNIT OPERATIONS BLOCK: "ECO" (MODEL: "HEATX")     
                                                               (UHE02I.1)       
      AT LEAST ONE FEED HAS ZERO FLOW                                           
      BLOCK BYPASSED                                                            

      UOS BLOCK EVA      MODEL: HEATX                                             TIME =      0.52

  *   WARNING WHILE EXECUTING UNIT OPERATIONS BLOCK: "EVA" (MODEL: "HEATX")     
                                                               (UHE02I.1)       
      AT LEAST ONE FEED HAS ZERO FLOW                                           
      BLOCK BYPASSED                                                            

      CONVERGENCE BLOCK $OLVER03  METHOD: SECANT                                  TIME =      0.52
     SPECS: CTRL2

      ENTHALPY CALCULATION FOR INLET STREAM 3 OF BLOCK CC                         TIME =      0.52
      KODE = 2  NTRIAL =   1  T = 288.1500  P = 1.551000E+06  V =  1.00000      Q =  0.00000    

      CONVERGENCE BLOCK $OLVER02  METHOD: SECANT                                  TIME =      0.52
     SPECS: CTRL1

      ENTHALPY CALCULATION FOR INLET STREAM 1 OF BLOCK COMP                       TIME =      0.52
      KODE = 2  NTRIAL =   1  T = 288.1500  P =  101300.      V =  1.00000      Q =  0.00000    

      UOS BLOCK COMP     MODEL: COMPR                                             TIME =      0.52
      OUTLET TEMP =   655.4       OUTLET PRES =  0.1551E+07   INDICATED HP =  0.2420E+09   BRAKE HP =  0.2420E+09
      ISENTR TEMP =   619.8      CALC ISENTR EFF =  0.9000      ISENTR HP =  0.2178E+09  HP =  0.5347E+10

      UOS BLOCK CC       MODEL: RSTOIC                                            TIME =      0.52
      NO. TEMP ITER =    6     TEMP =  1423.96    
      KODE = 1  NTRIAL =   2  T =1423.9579  P = 1.500000E+06  V =  1.00000      Q =  0.00000    

      CONVERGENCE BLOCK $OLVER02  METHOD: SECANT                                  TIME =      0.52
      ITER   0 For Specs:        CTRL1
      SPEC   1 ERROR =  0.80793     OLD X =   22.098     NEW X =   22.167    

  LOOP $OLVER02 ITER    1:   1 VARS NOT CONVERGED, MAX ERR/TOL      80793.        TIME =      0.53

      UOS BLOCK COMP     MODEL: COMPR                                             TIME =      0.53
      OUTLET TEMP =   655.4       OUTLET PRES =  0.1551E+07   INDICATED HP =  0.2427E+09   BRAKE HP =  0.2427E+09
      ISENTR TEMP =   619.8      CALC ISENTR EFF =  0.9000      ISENTR HP =  0.2184E+09  HP =  0.5380E+10

      UOS BLOCK CC       MODEL: RSTOIC                                            TIME =      0.53
      NO. TEMP ITER =    6     TEMP =  1421.84    
      KODE = 1  NTRIAL =   2  T =1421.8400  P = 1.500000E+06  V =  1.00000      Q =  0.00000    

      CONVERGENCE BLOCK $OLVER02  METHOD: SECANT                                  TIME =      0.53
      ITER   2 For Specs:        CTRL1
      SPEC   1 ERROR =  -1.3100     OLD X =   22.167     NEW X =   22.124    

  LOOP $OLVER02 ITER    2:   1 VARS NOT CONVERGED, MAX ERR/TOL    -0.13100E+06    TIME =      0.53

      UOS BLOCK COMP     MODEL: COMPR                                             TIME =      0.53
      OUTLET TEMP =   655.4       OUTLET PRES =  0.1551E+07   INDICATED HP =  0.2422E+09   BRAKE HP =  0.2422E+09
      ISENTR TEMP =   619.8      CALC ISENTR EFF =  0.9000      ISENTR HP =  0.2180E+09  HP =  0.5360E+10

      UOS BLOCK CC       MODEL: RSTOIC                                            TIME =      0.53
      NO. TEMP ITER =    6     TEMP =  1423.15    
      KODE = 1  NTRIAL =   2  T =1423.1486  P = 1.500000E+06  V =  1.00000      Q =  0.00000    

      CONVERGENCE BLOCK $OLVER02  METHOD: SECANT                                  TIME =      0.53
      ITER   3 For Specs:        CTRL1
      SPEC   1 ERROR = -0.13964E-02 OLD X =   22.124     NEW X =   22.124    

  LOOP $OLVER02 ITER    3:   1 VARS NOT CONVERGED, MAX ERR/TOL     -139.64        TIME =      0.53

      UOS BLOCK COMP     MODEL: COMPR                                             TIME =      0.53
      OUTLET TEMP =   655.4       OUTLET PRES =  0.1551E+07   INDICATED HP =  0.2422E+09   BRAKE HP =  0.2422E+09
      ISENTR TEMP =   619.8      CALC ISENTR EFF =  0.9000      ISENTR HP =  0.2180E+09  HP =  0.5359E+10

      UOS BLOCK CC       MODEL: RSTOIC                                            TIME =      0.53
      NO. TEMP ITER =    6     TEMP =  1423.15    
      KODE = 1  NTRIAL =   2  T =1423.1500  P = 1.500000E+06  V =  1.00000      Q =  0.00000    

      CONVERGENCE BLOCK $OLVER02  METHOD: SECANT                                  TIME =      0.53
      ITER   4 For Specs:        CTRL1
      SPEC   1 ERROR = -0.25912E-08                          X =   22.124    

  LOOP $OLVER02 ITER    4:     *** CONVERGED *** , MAX ERR/TOL    -0.25912E-03    TIME =      0.53

      UOS BLOCK GT       MODEL: COMPR                                             TIME =      0.53
      OUTLET TEMP =   803.7       OUTLET PRES =  0.1034E+06   INDICATED HP = -0.4942E+09   BRAKE HP = -0.4942E+09
      ISENTR TEMP =   746.3      CALC ISENTR EFF =  0.9200      ISENTR HP = -0.5372E+09  HP = -0.1131E+11

      UOS BLOCK SH       MODEL: HEATX                                             TIME =      0.53
      SPECIFICATION: COLD APPROACH TEMP    25.000    
      FLOW TYPE:     COUNTERCURRENT  
      HOT:  TIN=  803.74  PIN=0.10340E+06   TOUT=  506.39  POUT=0.10270E+06
      COLD: TIN=  453.86  PIN=0.50070E+07   TOUT=  778.74  POUT=0.50020E+07
                              DUTY=0.21631E+09

      UOS BLOCK ST1      MODEL: COMPR                                             TIME =      0.53
      OUTLET TEMP =   604.5       OUTLET PRES =  0.1500E+07   INDICATED HP = -0.2746E+08   BRAKE HP = -0.2746E+08
      ISENTR TEMP =   592.9      CALC ISENTR EFF =  0.9300      ISENTR HP = -0.2953E+08  HP = -0.1231E+09

      CONVERGENCE BLOCK $OLVER05  METHOD: SECANT                                  TIME =      0.53
     SPECS: CTRL4

      CONVERGENCE BLOCK $OLVER04  METHOD: SECANT                                  TIME =      0.53
     SPECS: CTRL3

      UOS BLOCK ST-SPLIT MODEL: FSPLIT                                            TIME =      0.53
      SPLIT FRACTIONS:  0.37260D+00    0.10881D+00    0.51859D+00

      UOS BLOCK HC       MODEL: HEATER                                            TIME =      0.53

      CONVERGENCE BLOCK $OLVER04  METHOD: SECANT                                  TIME =      0.53
      ITER   0 For Specs:        CTRL3
      SPEC   1 ERROR =  -6.1598     OLD X =  0.51859     NEW X =  0.51869    

  LOOP $OLVER04 ITER    1:   1 VARS NOT CONVERGED, MAX ERR/TOL     -6159.8        TIME =      0.53

      UOS BLOCK ST-SPLIT MODEL: FSPLIT                                            TIME =      0.53
      SPLIT FRACTIONS:  0.37250D+00    0.10881D+00    0.51869D+00

      UOS BLOCK HC       MODEL: HEATER                                            TIME =      0.53

      CONVERGENCE BLOCK $OLVER04  METHOD: SECANT                                  TIME =      0.53
      ITER   2 For Specs:        CTRL3
      SPEC   1 ERROR =  -25.444     OLD X =  0.51869     NEW X =  0.51856    

  LOOP $OLVER04 ITER    2:   1 VARS NOT CONVERGED, MAX ERR/TOL     -25444.        TIME =      0.53

      UOS BLOCK ST-SPLIT MODEL: FSPLIT                                            TIME =      0.53
      SPLIT FRACTIONS:  0.37263D+00    0.10881D+00    0.51856D+00

      UOS BLOCK HC       MODEL: HEATER                                            TIME =      0.53

      CONVERGENCE BLOCK $OLVER04  METHOD: SECANT                                  TIME =      0.53
      ITER   3 For Specs:        CTRL3
      SPEC   1 ERROR = -0.29104E-10                          X =  0.51856    

  LOOP $OLVER04 ITER    3:     *** CONVERGED *** , MAX ERR/TOL    -0.29104E-07    TIME =      0.53

      UOS BLOCK ST2      MODEL: COMPR                                             TIME =      0.54
      OUTLET TEMP =   306.0       OUTLET PRES =   5000.       INDICATED HP = -0.2575E+08   BRAKE HP = -0.2575E+08
      ISENTR TEMP =   306.0      CALC ISENTR EFF =  0.8900      ISENTR HP = -0.2893E+08  HP = -0.4300E+08

      CONVERGENCE BLOCK $OLVER06  METHOD: SECANT                                  TIME =      0.54
     SPECS: CTRL5

      ENTHALPY CALCULATION FOR INLET STREAM 14 OF BLOCK COND                      TIME =      0.54

      UOS BLOCK COND     MODEL: HEATX                                             TIME =      0.54
      SPECIFICATION: COLD APPROACH TEMP    5.0000    
      FLOW TYPE:     COUNTERCURRENT  
      HOT:  TIN=  306.02  PIN= 5000.0       TOUT=  305.95  POUT= 5000.0    
      COLD: TIN=  288.15  PIN=0.10130E+06   TOUT=  301.02  POUT=0.10130E+06
                              DUTY=0.63593E+08

      CONVERGENCE BLOCK $OLVER06  METHOD: SECANT                                  TIME =      0.69
      ITER   0 For Specs:        CTRL5
      SPEC   1 ERROR =   0.0000                              X =   65.540    

  LOOP $OLVER06 ITER    1:     *** CONVERGED *** , MAX ERR/TOL      0.0000        TIME =      0.69

      UOS BLOCK PUMP1    MODEL: PUMP                                              TIME =      0.69
      VOL-FLOW   =  0.3024E-01 , DELTA P    =  0.9950E+06 , PUMP EFF   =  0.8000    
      FLUID PWR  =  0.3009E+05 , BRAKE PWR  =  0.3761E+05 , ELEC PWR   =  0.3818E+05

      UOS BLOCK MIX      MODEL: MIXER                                             TIME =      0.69

      UOS BLOCK DEA      MODEL: MIXER                                             TIME =      0.69

      CONVERGENCE BLOCK $OLVER05  METHOD: SECANT                                  TIME =      0.69
      ITER   0 For Specs:        CTRL4
      SPEC   1 ERROR =   0.0000                              X =  0.10881    

  LOOP $OLVER05 ITER    1:     *** CONVERGED *** , MAX ERR/TOL      0.0000        TIME =      0.69

      UOS BLOCK GEN2     MODEL: MULT                                              TIME =      0.69

      UOS BLOCK PUMP2    MODEL: PUMP                                              TIME =      0.69
      VOL-FLOW   =  0.9100E-01 , DELTA P    =  0.4007E+07 , PUMP EFF   =  0.9850    
      FLUID PWR  =  0.3646E+06 , BRAKE PWR  =  0.3702E+06 , ELEC PWR   =  0.3758E+06

      UOS BLOCK GEN1     MODEL: MULT                                              TIME =      0.69

      UOS BLOCK POWER    MODEL: MIXER                                             TIME =      0.69

      CONVERGENCE BLOCK $OLVER03  METHOD: SECANT                                  TIME =      0.69
      ITER   0 For Specs:        CTRL2
      SPEC   1 ERROR =  -488.22     OLD X =  0.77079     NEW X =  0.78264    

  LOOP $OLVER03 ITER    1:   1 VARS NOT CONVERGED, MAX ERR/TOL    -0.48822E+06    TIME =      0.69

      CONVERGENCE BLOCK $OLVER02  METHOD: SECANT                                  TIME =      0.69
      ITER   0 For Specs:        CTRL1

      UOS BLOCK CC       MODEL: RSTOIC                                            TIME =      0.69
      NO. TEMP ITER =    6     TEMP =  1433.53    
      KODE = 1  NTRIAL =   2  T =1433.5266  P = 1.500000E+06  V =  1.00000      Q =  0.00000    

      CONVERGENCE BLOCK $OLVER02  METHOD: SECANT                                  TIME =      0.69
      ITER   1 For Specs:        CTRL1
      SPEC   1 ERROR =   10.377     OLD X =   22.124     NEW X =   22.463    

  LOOP $OLVER02 ITER    1:   1 VARS NOT CONVERGED, MAX ERR/TOL     0.10377E+07    TIME =      0.69

      UOS BLOCK COMP     MODEL: COMPR                                             TIME =      0.69
      OUTLET TEMP =   655.4       OUTLET PRES =  0.1551E+07   INDICATED HP =  0.2460E+09   BRAKE HP =  0.2460E+09
      ISENTR TEMP =   619.8      CALC ISENTR EFF =  0.9000      ISENTR HP =  0.2214E+09  HP =  0.5525E+10

      UOS BLOCK CC       MODEL: RSTOIC                                            TIME =      0.69
      NO. TEMP ITER =    6     TEMP =  1423.18    
      KODE = 1  NTRIAL =   2  T =1423.1778  P = 1.500000E+06  V =  1.00000      Q =  0.00000    

      CONVERGENCE BLOCK $OLVER02  METHOD: SECANT                                  TIME =      0.69
      ITER   2 For Specs:        CTRL1
      SPEC   1 ERROR =  0.27822E-01 OLD X =   22.463     NEW X =   22.464    

  LOOP $OLVER02 ITER    2:   1 VARS NOT CONVERGED, MAX ERR/TOL      2782.2        TIME =      0.69

      UOS BLOCK COMP     MODEL: COMPR                                             TIME =      0.69
      OUTLET TEMP =   655.4       OUTLET PRES =  0.1551E+07   INDICATED HP =  0.2460E+09   BRAKE HP =  0.2460E+09
      ISENTR TEMP =   619.8      CALC ISENTR EFF =  0.9000      ISENTR HP =  0.2214E+09  HP =  0.5525E+10

      UOS BLOCK CC       MODEL: RSTOIC                                            TIME =      0.69
      NO. TEMP ITER =    6     TEMP =  1423.15    
      KODE = 1  NTRIAL =   2  T =1423.1504  P = 1.500000E+06  V =  1.00000      Q =  0.00000    

      CONVERGENCE BLOCK $OLVER02  METHOD: SECANT                                  TIME =      0.69
      ITER   3 For Specs:        CTRL1
      SPEC   1 ERROR =  0.37552E-03 OLD X =   22.464     NEW X =   22.464    

  LOOP $OLVER02 ITER    3:   1 VARS NOT CONVERGED, MAX ERR/TOL      37.552        TIME =      0.69

      UOS BLOCK COMP     MODEL: COMPR                                             TIME =      0.69
      OUTLET TEMP =   655.4       OUTLET PRES =  0.1551E+07   INDICATED HP =  0.2460E+09   BRAKE HP =  0.2460E+09
      ISENTR TEMP =   619.8      CALC ISENTR EFF =  0.9000      ISENTR HP =  0.2214E+09  HP =  0.5525E+10

      UOS BLOCK CC       MODEL: RSTOIC                                            TIME =      0.69
      NO. TEMP ITER =    6     TEMP =  1423.15    
      KODE = 1  NTRIAL =   2  T =1423.1500  P = 1.500000E+06  V =  1.00000      Q =  0.00000    

      CONVERGENCE BLOCK $OLVER02  METHOD: SECANT                                  TIME =      0.69
      ITER   4 For Specs:        CTRL1
      SPEC   1 ERROR =  0.50686E-05                          X =   22.464    

  LOOP $OLVER02 ITER    4:     *** CONVERGED *** , MAX ERR/TOL     0.50686        TIME =      0.69

      UOS BLOCK GT       MODEL: COMPR                                             TIME =      0.71
      OUTLET TEMP =   803.7       OUTLET PRES =  0.1034E+06   INDICATED HP = -0.5018E+09   BRAKE HP = -0.5018E+09
      ISENTR TEMP =   746.3      CALC ISENTR EFF =  0.9200      ISENTR HP = -0.5454E+09  HP = -0.1167E+11

      UOS BLOCK SH       MODEL: HEATX                                             TIME =      0.71
      SPECIFICATION: COLD APPROACH TEMP    25.000    
      FLOW TYPE:     COUNTERCURRENT  
      HOT:  TIN=  803.74  PIN=0.10340E+06   TOUT=  511.05  POUT=0.10270E+06
      COLD: TIN=  453.86  PIN=0.50070E+07   TOUT=  778.74  POUT=0.50020E+07
                              DUTY=0.21631E+09

      UOS BLOCK ST1      MODEL: COMPR                                             TIME =      0.72
      OUTLET TEMP =   604.5       OUTLET PRES =  0.1500E+07   INDICATED HP = -0.2746E+08   BRAKE HP = -0.2746E+08
      ISENTR TEMP =   592.9      CALC ISENTR EFF =  0.9300      ISENTR HP = -0.2953E+08  HP = -0.1231E+09

      CONVERGENCE BLOCK $OLVER05  METHOD: SECANT                                  TIME =      0.72
      ITER   0 For Specs:        CTRL4

      CONVERGENCE BLOCK $OLVER04  METHOD: SECANT                                  TIME =      0.72
      ITER   0 For Specs:        CTRL3

      UOS BLOCK ST-SPLIT MODEL: FSPLIT                                            TIME =      0.72
      SPLIT FRACTIONS:  0.37263D+00    0.10881D+00    0.51856D+00

      UOS BLOCK HC       MODEL: HEATER                                            TIME =      0.72

      CONVERGENCE BLOCK $OLVER04  METHOD: SECANT                                  TIME =      0.72
      ITER   1 For Specs:        CTRL3
      SPEC   1 ERROR = -0.25321E-03                          X =  0.51856    

  LOOP $OLVER04 ITER    1:     *** CONVERGED *** , MAX ERR/TOL    -0.25321        TIME =      0.72

      UOS BLOCK ST2      MODEL: COMPR                                             TIME =      0.72
      OUTLET TEMP =   306.0       OUTLET PRES =   5000.       INDICATED HP = -0.2575E+08   BRAKE HP = -0.2575E+08
      ISENTR TEMP =   306.0      CALC ISENTR EFF =  0.8900      ISENTR HP = -0.2893E+08  HP = -0.4300E+08

      CONVERGENCE BLOCK $OLVER06  METHOD: SECANT                                  TIME =      0.72
      ITER   0 For Specs:        CTRL5

      UOS BLOCK COND     MODEL: HEATX                                             TIME =      0.72
      SPECIFICATION: COLD APPROACH TEMP    5.0000    
      FLOW TYPE:     COUNTERCURRENT  
      HOT:  TIN=  306.02  PIN= 5000.0       TOUT=  305.95  POUT= 5000.0    
      COLD: TIN=  288.15  PIN=0.10130E+06   TOUT=  301.02  POUT=0.10130E+06
                              DUTY=0.63593E+08

      CONVERGENCE BLOCK $OLVER06  METHOD: SECANT                                  TIME =      0.72
      ITER   1 For Specs:        CTRL5
      SPEC   1 ERROR =   0.0000                              X =   65.540    

  LOOP $OLVER06 ITER    1:     *** CONVERGED *** , MAX ERR/TOL      0.0000        TIME =      0.72

      UOS BLOCK PUMP1    MODEL: PUMP                                              TIME =      0.72
      VOL-FLOW   =  0.3024E-01 , DELTA P    =  0.9950E+06 , PUMP EFF   =  0.8000    
      FLUID PWR  =  0.3009E+05 , BRAKE PWR  =  0.3761E+05 , ELEC PWR   =  0.3818E+05

      UOS BLOCK MIX      MODEL: MIXER                                             TIME =      0.72

      UOS BLOCK DEA      MODEL: MIXER                                             TIME =      0.72

      CONVERGENCE BLOCK $OLVER05  METHOD: SECANT                                  TIME =      0.72
      ITER   1 For Specs:        CTRL4
      SPEC   1 ERROR =   0.0000                              X =  0.10881    

  LOOP $OLVER05 ITER    1:     *** CONVERGED *** , MAX ERR/TOL      0.0000        TIME =      0.72

      UOS BLOCK GEN2     MODEL: MULT                                              TIME =      0.72

      UOS BLOCK PUMP2    MODEL: PUMP                                              TIME =      0.72
      VOL-FLOW   =  0.9100E-01 , DELTA P    =  0.4007E+07 , PUMP EFF   =  0.9850    
      FLUID PWR  =  0.3646E+06 , BRAKE PWR  =  0.3702E+06 , ELEC PWR   =  0.3758E+06

      UOS BLOCK GEN1     MODEL: MULT                                              TIME =      0.72

      UOS BLOCK POWER    MODEL: MIXER                                             TIME =      0.72

      CONVERGENCE BLOCK $OLVER03  METHOD: SECANT                                  TIME =      0.72
      ITER   2 For Specs:        CTRL2
      SPEC   1 ERROR =  -4305.4     OLD X =  0.78264     NEW X =  0.76928    

  LOOP $OLVER03 ITER    2:   1 VARS NOT CONVERGED, MAX ERR/TOL    -0.43054E+07    TIME =      0.72

      CONVERGENCE BLOCK $OLVER02  METHOD: SECANT                                  TIME =      0.72
      ITER   0 For Specs:        CTRL1

      UOS BLOCK CC       MODEL: RSTOIC                                            TIME =      0.72
      NO. TEMP ITER =    6     TEMP =  1411.58    
      KODE = 1  NTRIAL =   2  T =1411.5828  P = 1.500000E+06  V =  1.00000      Q =  0.00000    

      CONVERGENCE BLOCK $OLVER02  METHOD: SECANT                                  TIME =      0.72
      ITER   1 For Specs:        CTRL1
      SPEC   1 ERROR =  -11.567     OLD X =   22.464     NEW X =   22.080    

  LOOP $OLVER02 ITER    1:   1 VARS NOT CONVERGED, MAX ERR/TOL    -0.11567E+07    TIME =      0.79

      UOS BLOCK COMP     MODEL: COMPR                                             TIME =      0.79
      OUTLET TEMP =   655.4       OUTLET PRES =  0.1551E+07   INDICATED HP =  0.2418E+09   BRAKE HP =  0.2418E+09
      ISENTR TEMP =   619.8      CALC ISENTR EFF =  0.9000      ISENTR HP =  0.2176E+09  HP =  0.5338E+10

      UOS BLOCK CC       MODEL: RSTOIC                                            TIME =      0.79
      NO. TEMP ITER =    6     TEMP =  1423.17    
      KODE = 1  NTRIAL =   2  T =1423.1713  P = 1.500000E+06  V =  1.00000      Q =  0.00000    

      CONVERGENCE BLOCK $OLVER02  METHOD: SECANT                                  TIME =      0.80
      ITER   2 For Specs:        CTRL1
      SPEC   1 ERROR =  0.21310E-01 OLD X =   22.080     NEW X =   22.081    

  LOOP $OLVER02 ITER    2:   1 VARS NOT CONVERGED, MAX ERR/TOL      2131.0        TIME =      0.80

      UOS BLOCK COMP     MODEL: COMPR                                             TIME =      0.80
      OUTLET TEMP =   655.4       OUTLET PRES =  0.1551E+07   INDICATED HP =  0.2418E+09   BRAKE HP =  0.2418E+09
      ISENTR TEMP =   619.8      CALC ISENTR EFF =  0.9000      ISENTR HP =  0.2176E+09  HP =  0.5338E+10

      UOS BLOCK CC       MODEL: RSTOIC                                            TIME =      0.80
      NO. TEMP ITER =    6     TEMP =  1423.15    
      KODE = 1  NTRIAL =   2  T =1423.1497  P = 1.500000E+06  V =  1.00000      Q =  0.00000    

      CONVERGENCE BLOCK $OLVER02  METHOD: SECANT                                  TIME =      0.80
      ITER   3 For Specs:        CTRL1
      SPEC   1 ERROR = -0.32996E-03 OLD X =   22.081     NEW X =   22.081    

  LOOP $OLVER02 ITER    3:   1 VARS NOT CONVERGED, MAX ERR/TOL     -32.996        TIME =      0.80

      UOS BLOCK COMP     MODEL: COMPR                                             TIME =      0.80
      OUTLET TEMP =   655.4       OUTLET PRES =  0.1551E+07   INDICATED HP =  0.2418E+09   BRAKE HP =  0.2418E+09
      ISENTR TEMP =   619.8      CALC ISENTR EFF =  0.9000      ISENTR HP =  0.2176E+09  HP =  0.5338E+10

      UOS BLOCK CC       MODEL: RSTOIC                                            TIME =      0.80
      NO. TEMP ITER =    6     TEMP =  1423.16    
      KODE = 1  NTRIAL =   2  T =1423.1605  P = 1.500000E+06  V =  1.00000      Q =  0.00000    

      CONVERGENCE BLOCK $OLVER02  METHOD: SECANT                                  TIME =      0.80
      ITER   4 For Specs:        CTRL1
      SPEC   1 ERROR =  0.10490E-01 OLD X =   22.081     NEW X =   22.081    

  LOOP $OLVER02 ITER    4:   1 VARS NOT CONVERGED, MAX ERR/TOL      1049.0        TIME =      0.80

      UOS BLOCK COMP     MODEL: COMPR                                             TIME =      0.80
      OUTLET TEMP =   655.4       OUTLET PRES =  0.1551E+07   INDICATED HP =  0.2418E+09   BRAKE HP =  0.2418E+09
      ISENTR TEMP =   619.8      CALC ISENTR EFF =  0.9000      ISENTR HP =  0.2176E+09  HP =  0.5338E+10

      UOS BLOCK CC       MODEL: RSTOIC                                            TIME =      0.80
      NO. TEMP ITER =    6     TEMP =  1423.15    
      KODE = 1  NTRIAL =   2  T =1423.1500  P = 1.500000E+06  V =  1.00000      Q =  0.00000    

      CONVERGENCE BLOCK $OLVER02  METHOD: SECANT                                  TIME =      0.80
      ITER   5 For Specs:        CTRL1
      SPEC   1 ERROR =  0.45475E-12                          X =   22.081    

  LOOP $OLVER02 ITER    5:     *** CONVERGED *** , MAX ERR/TOL     0.45475E-07    TIME =      0.80

      UOS BLOCK GT       MODEL: COMPR                                             TIME =      0.80
      OUTLET TEMP =   803.7       OUTLET PRES =  0.1034E+06   INDICATED HP = -0.4932E+09   BRAKE HP = -0.4932E+09
      ISENTR TEMP =   746.3      CALC ISENTR EFF =  0.9200      ISENTR HP = -0.5361E+09  HP = -0.1127E+11

      UOS BLOCK SH       MODEL: HEATX                                             TIME =      0.80
      SPECIFICATION: COLD APPROACH TEMP    25.000    
      FLOW TYPE:     COUNTERCURRENT  
      HOT:  TIN=  803.74  PIN=0.10340E+06   TOUT=  505.78  POUT=0.10270E+06
      COLD: TIN=  453.86  PIN=0.50070E+07   TOUT=  778.74  POUT=0.50020E+07
                              DUTY=0.21631E+09

      UOS BLOCK ST1      MODEL: COMPR                                             TIME =      0.80
      OUTLET TEMP =   604.5       OUTLET PRES =  0.1500E+07   INDICATED HP = -0.2746E+08   BRAKE HP = -0.2746E+08
      ISENTR TEMP =   592.9      CALC ISENTR EFF =  0.9300      ISENTR HP = -0.2953E+08  HP = -0.1231E+09

      CONVERGENCE BLOCK $OLVER05  METHOD: SECANT                                  TIME =      0.80
      ITER   0 For Specs:        CTRL4

      CONVERGENCE BLOCK $OLVER04  METHOD: SECANT                                  TIME =      0.80
      ITER   0 For Specs:        CTRL3

      UOS BLOCK ST-SPLIT MODEL: FSPLIT                                            TIME =      0.80
      SPLIT FRACTIONS:  0.37263D+00    0.10881D+00    0.51856D+00

      UOS BLOCK HC       MODEL: HEATER                                            TIME =      0.80

      CONVERGENCE BLOCK $OLVER04  METHOD: SECANT                                  TIME =      0.80
      ITER   1 For Specs:        CTRL3
      SPEC   1 ERROR =  0.51322E-05                          X =  0.51856    

  LOOP $OLVER04 ITER    1:     *** CONVERGED *** , MAX ERR/TOL     0.51322E-02    TIME =      0.80

      UOS BLOCK ST2      MODEL: COMPR                                             TIME =      0.80
      OUTLET TEMP =   306.0       OUTLET PRES =   5000.       INDICATED HP = -0.2575E+08   BRAKE HP = -0.2575E+08
      ISENTR TEMP =   306.0      CALC ISENTR EFF =  0.8900      ISENTR HP = -0.2893E+08  HP = -0.4300E+08

      CONVERGENCE BLOCK $OLVER06  METHOD: SECANT                                  TIME =      0.80
      ITER   0 For Specs:        CTRL5

      UOS BLOCK COND     MODEL: HEATX                                             TIME =      0.80
      SPECIFICATION: COLD APPROACH TEMP    5.0000    
      FLOW TYPE:     COUNTERCURRENT  
      HOT:  TIN=  306.02  PIN= 5000.0       TOUT=  305.95  POUT= 5000.0    
      COLD: TIN=  288.15  PIN=0.10130E+06   TOUT=  301.02  POUT=0.10130E+06
                              DUTY=0.63593E+08

      CONVERGENCE BLOCK $OLVER06  METHOD: SECANT                                  TIME =      0.86
      ITER   1 For Specs:        CTRL5
      SPEC   1 ERROR =   0.0000                              X =   65.540    

  LOOP $OLVER06 ITER    1:     *** CONVERGED *** , MAX ERR/TOL      0.0000        TIME =      0.86

      UOS BLOCK PUMP1    MODEL: PUMP                                              TIME =      0.86
      VOL-FLOW   =  0.3024E-01 , DELTA P    =  0.9950E+06 , PUMP EFF   =  0.8000    
      FLUID PWR  =  0.3009E+05 , BRAKE PWR  =  0.3761E+05 , ELEC PWR   =  0.3818E+05

      UOS BLOCK MIX      MODEL: MIXER                                             TIME =      0.86

      UOS BLOCK DEA      MODEL: MIXER                                             TIME =      0.86

      CONVERGENCE BLOCK $OLVER05  METHOD: SECANT                                  TIME =      0.87
      ITER   1 For Specs:        CTRL4
      SPEC   1 ERROR =   0.0000                              X =  0.10881    

  LOOP $OLVER05 ITER    1:     *** CONVERGED *** , MAX ERR/TOL      0.0000        TIME =      0.87

      UOS BLOCK GEN2     MODEL: MULT                                              TIME =      0.87

      UOS BLOCK PUMP2    MODEL: PUMP                                              TIME =      0.87
      VOL-FLOW   =  0.9100E-01 , DELTA P    =  0.4007E+07 , PUMP EFF   =  0.9850    
      FLUID PWR  =  0.3646E+06 , BRAKE PWR  =  0.3702E+06 , ELEC PWR   =  0.3758E+06

      UOS BLOCK GEN1     MODEL: MULT                                              TIME =      0.87

      UOS BLOCK POWER    MODEL: MIXER                                             TIME =      0.87

      CONVERGENCE BLOCK $OLVER03  METHOD: SECANT                                  TIME =      0.87
      ITER   3 For Specs:        CTRL2
      SPEC   1 ERROR = -0.62431E-04                          X =  0.76928    

  LOOP $OLVER03 ITER    3:     *** CONVERGED *** , MAX ERR/TOL    -0.62431E-01    TIME =      0.87

      CONVERGENCE BLOCK $OLVER01  METHOD: WEGSTEIN                                TIME =      0.87
      ITER   1 For Tear Streams: 6         7         21

  *   WARNING WHILE EXECUTING CONVERGENCE BLOCK: "$OLVER01" (MODEL: "WEGSTEIN") 
                                                               (WEGSTN2.1)      
      THE VALUES FOR SOME VARIABLES ARE MISSING.                                
      THIS MAY BE CAUSED BY A ZERO-FLOW STREAM.                                 
      THE PREVIOUS VALUES OF THE VARIABLES WILL BE USED.                        
      THE MISSING VARIABLES ARE:                                                
      "15" THRU "16"                                                            

      --FLASH TEAR STREAM 6       
      NO. TEMP ITER =    5     TEMP =  505.783    
      KODE = 1  NTRIAL =   2  T = 505.7832  P =  102700.      V =  1.00000      Q =  0.00000    

      --FLASH TEAR STREAM 21      
      KODE = 1   NO. TEMP ITER =    3     TEMP =  453.597    
      KPHASE =    2 KODE =    1 T =  453.597     P = 5.007000E+06 Q =  0.00000    

  LOOP $OLVER01 ITER    1:   6 VARS NOT CONVERGED, MAX ERR/TOL     0.10000E+07    TIME =      0.87

      UOS BLOCK ECO      MODEL: HEATX                                             TIME =      0.87

  *   WARNING WHILE EXECUTING UNIT OPERATIONS BLOCK: "ECO" (MODEL: "HEATX")     
                                                               (UHE02I.1)       
      AT LEAST ONE FEED HAS ZERO FLOW                                           
      BLOCK BYPASSED                                                            

      UOS BLOCK EVA      MODEL: HEATX                                             TIME =      0.87
      SPECIFICATION: COLD VAPOR FRACTION   1.0000    
      FLOW TYPE:     COUNTERCURRENT  

  **  ERROR WHILE EXECUTING UNIT OPERATIONS BLOCK: "EVA" (MODEL: "HEATX")       
                                                               (HEATX.4)        
      TEMPERATURE CROSSOVER DETECTED                                            
      RE-CALCULATING WITH MINIMUM APPROACH TEMP. SPEC                           

  **  ERROR WHILE EXECUTING UNIT OPERATIONS BLOCK: "EVA" (MODEL: "HEATX")       
                                                               (HEATX.4)        
      TEMPERATURE CROSSOVER DETECTED                                            
      RE-CALCULATING WITH MINIMUM APPROACH TEMP. SPEC                           
      HOT:  TIN=  505.78  PIN=0.10270E+06   TOUT=  483.93  POUT=0.10200E+06
      COLD: TIN=  453.60  PIN=0.50070E+07   TOUT=  495.78  POUT=0.50070E+07
                              DUTY=0.15289E+08

      CONVERGENCE BLOCK $OLVER03  METHOD: SECANT                                  TIME =      0.87
      ITER   0 For Specs:        CTRL2

      UOS BLOCK SH       MODEL: HEATX                                             TIME =      0.87
      SPECIFICATION: COLD APPROACH TEMP    25.000    
      FLOW TYPE:     COUNTERCURRENT  
      HOT:  TIN=  803.74  PIN=0.10340E+06   TOUT=  527.41  POUT=0.10270E+06
      COLD: TIN=  495.78  PIN=0.50070E+07   TOUT=  778.74  POUT=0.50020E+07
                              DUTY=0.20111E+09

      UOS BLOCK ST1      MODEL: COMPR                                             TIME =      0.87
      OUTLET TEMP =   604.5       OUTLET PRES =  0.1500E+07   INDICATED HP = -0.2746E+08   BRAKE HP = -0.2746E+08
      ISENTR TEMP =   592.9      CALC ISENTR EFF =  0.9300      ISENTR HP = -0.2953E+08  HP = -0.1231E+09

      CONVERGENCE BLOCK $OLVER05  METHOD: SECANT                                  TIME =      0.87
      ITER   0 For Specs:        CTRL4

      CONVERGENCE BLOCK $OLVER04  METHOD: SECANT                                  TIME =      0.87
      ITER   0 For Specs:        CTRL3

      UOS BLOCK ST-SPLIT MODEL: FSPLIT                                            TIME =      0.89
      SPLIT FRACTIONS:  0.37263D+00    0.10881D+00    0.51856D+00

      UOS BLOCK HC       MODEL: HEATER                                            TIME =      0.89

      CONVERGENCE BLOCK $OLVER04  METHOD: SECANT                                  TIME =      0.89
      ITER   1 For Specs:        CTRL3
      SPEC   1 ERROR =  0.51322E-05                          X =  0.51856    

  LOOP $OLVER04 ITER    1:     *** CONVERGED *** , MAX ERR/TOL     0.51322E-02    TIME =      0.89

      UOS BLOCK ST2      MODEL: COMPR                                             TIME =      0.89
      OUTLET TEMP =   306.0       OUTLET PRES =   5000.       INDICATED HP = -0.2575E+08   BRAKE HP = -0.2575E+08
      ISENTR TEMP =   306.0      CALC ISENTR EFF =  0.8900      ISENTR HP = -0.2893E+08  HP = -0.4300E+08

      CONVERGENCE BLOCK $OLVER06  METHOD: SECANT                                  TIME =      0.89
      ITER   0 For Specs:        CTRL5

      UOS BLOCK COND     MODEL: HEATX                                             TIME =      0.89
      SPECIFICATION: COLD APPROACH TEMP    5.0000    
      FLOW TYPE:     COUNTERCURRENT  
      HOT:  TIN=  306.02  PIN= 5000.0       TOUT=  305.95  POUT= 5000.0    
      COLD: TIN=  288.15  PIN=0.10130E+06   TOUT=  301.02  POUT=0.10130E+06
                              DUTY=0.63593E+08

      CONVERGENCE BLOCK $OLVER06  METHOD: SECANT                                  TIME =      0.89
      ITER   1 For Specs:        CTRL5
      SPEC   1 ERROR =   0.0000                              X =   65.540    

  LOOP $OLVER06 ITER    1:     *** CONVERGED *** , MAX ERR/TOL      0.0000        TIME =      0.89

      UOS BLOCK PUMP1    MODEL: PUMP                                              TIME =      0.89
      VOL-FLOW   =  0.3024E-01 , DELTA P    =  0.9950E+06 , PUMP EFF   =  0.8000    
      FLUID PWR  =  0.3009E+05 , BRAKE PWR  =  0.3761E+05 , ELEC PWR   =  0.3818E+05

      UOS BLOCK MIX      MODEL: MIXER                                             TIME =      0.89

      UOS BLOCK DEA      MODEL: MIXER                                             TIME =      0.90

      CONVERGENCE BLOCK $OLVER05  METHOD: SECANT                                  TIME =      0.90
      ITER   1 For Specs:        CTRL4
      SPEC   1 ERROR =   0.0000                              X =  0.10881    

  LOOP $OLVER05 ITER    1:     *** CONVERGED *** , MAX ERR/TOL      0.0000        TIME =      0.90

      UOS BLOCK GEN2     MODEL: MULT                                              TIME =      0.90

      UOS BLOCK PUMP2    MODEL: PUMP                                              TIME =      0.90
      VOL-FLOW   =  0.9100E-01 , DELTA P    =  0.4007E+07 , PUMP EFF   =  0.9850    
      FLUID PWR  =  0.3646E+06 , BRAKE PWR  =  0.3702E+06 , ELEC PWR   =  0.3758E+06

      UOS BLOCK POWER    MODEL: MIXER                                             TIME =      0.90

      CONVERGENCE BLOCK $OLVER03  METHOD: SECANT                                  TIME =      0.90
      ITER   1 For Specs:        CTRL2
      SPEC   1 ERROR = -0.62428E-04                          X =  0.76928    

  LOOP $OLVER03 ITER    1:     *** CONVERGED *** , MAX ERR/TOL    -0.62428E-01    TIME =      0.90

      CONVERGENCE BLOCK $OLVER01  METHOD: WEGSTEIN                                TIME =      0.90
      ITER   2 For Tear Streams: 6         7         21

      --FLASH TEAR STREAM 6       
      NO. TEMP ITER =    5     TEMP =  527.406    
      KODE = 1  NTRIAL =   2  T = 527.4059  P =  102700.      V =  1.00000      Q =  0.00000    

      --FLASH TEAR STREAM 7       
      NO. TEMP ITER =    5     TEMP =  483.930    
      KODE = 1  NTRIAL =   2  T = 483.9297  P =  102000.      V =  1.00000      Q =  0.00000    

      --FLASH TEAR STREAM 21      
      KODE = 1   NO. TEMP ITER =    1     TEMP =  453.597    
      KPHASE =    2 KODE =    1 T =  453.597     P = 5.007000E+06 Q =  0.00000    

  LOOP $OLVER01 ITER    2:   9 VARS NOT CONVERGED, MAX ERR/TOL      10000.        TIME =      0.90

      UOS BLOCK ECO      MODEL: HEATX                                             TIME =      0.90

  **  ERROR WHILE EXECUTING UNIT OPERATIONS BLOCK: "ECO" (MODEL: "HEATX")       
                                                               (HXZCSP.4)       
      INVALID COLD STREAM TEMPERATURE SPECIFICATION                             
      T-SPEC =  5.3115000D+02 IS MORE THAN THIN =  4.8392974D+02                

      UOS BLOCK EVA      MODEL: HEATX                                             TIME =      0.90
      SPECIFICATION: COLD VAPOR FRACTION   1.0000    
      FLOW TYPE:     COUNTERCURRENT  

  **  ERROR WHILE EXECUTING UNIT OPERATIONS BLOCK: "EVA" (MODEL: "HEATX")       
                                                               (HEATX.4)        
      TEMPERATURE CROSSOVER DETECTED                                            
      RE-CALCULATING WITH MINIMUM APPROACH TEMP. SPEC                           

  **  ERROR WHILE EXECUTING UNIT OPERATIONS BLOCK: "EVA" (MODEL: "HEATX")       
                                                               (HEATX.4)        
      TEMPERATURE CROSSOVER DETECTED                                            
      RE-CALCULATING WITH MINIMUM APPROACH TEMP. SPEC                           
      HOT:  TIN=  527.41  PIN=0.10270E+06   TOUT=  493.94  POUT=0.10200E+06
      COLD: TIN=  453.60  PIN=0.50070E+07   TOUT=  517.41  POUT=0.50070E+07
                              DUTY=0.23490E+08

      CONVERGENCE BLOCK $OLVER03  METHOD: SECANT                                  TIME =      0.90
      ITER   0 For Specs:        CTRL2

      UOS BLOCK SH       MODEL: HEATX                                             TIME =      0.90
      SPECIFICATION: COLD APPROACH TEMP    25.000    
      FLOW TYPE:     COUNTERCURRENT  

  **  ERROR WHILE EXECUTING UNIT OPERATIONS BLOCK: "SH" (MODEL: "HEATX")        
                                                               (HEATX.4)        
      TEMPERATURE CROSSOVER DETECTED                                            
      RE-CALCULATING WITH MINIMUM APPROACH TEMP. SPEC                           
      HOT:  TIN=  803.74  PIN=0.10340E+06   TOUT=  542.41  POUT=0.10270E+06
      COLD: TIN=  517.41  PIN=0.50070E+07   TOUT=  766.08  POUT=0.50020E+07
                              DUTY=0.19053E+09

      UOS BLOCK ST1      MODEL: COMPR                                             TIME =      0.90
      OUTLET TEMP =   594.1       OUTLET PRES =  0.1500E+07   INDICATED HP = -0.2693E+08   BRAKE HP = -0.2693E+08
      ISENTR TEMP =   582.7      CALC ISENTR EFF =  0.9300      ISENTR HP = -0.2896E+08  HP = -0.1207E+09

      CONVERGENCE BLOCK $OLVER05  METHOD: SECANT                                  TIME =      0.90
      ITER   0 For Specs:        CTRL4

      CONVERGENCE BLOCK $OLVER04  METHOD: SECANT                                  TIME =      0.90
      ITER   0 For Specs:        CTRL3

      UOS BLOCK ST-SPLIT MODEL: FSPLIT                                            TIME =      0.90
      SPLIT FRACTIONS:  0.37263D+00    0.10881D+00    0.51856D+00

      UOS BLOCK HC       MODEL: HEATER                                            TIME =      0.90

      CONVERGENCE BLOCK $OLVER04  METHOD: SECANT                                  TIME =      0.90
      ITER   1 For Specs:        CTRL3
      SPEC   1 ERROR =   961.49     OLD X =  0.51856     NEW X =  0.52000    

  LOOP $OLVER04 ITER    1:   1 VARS NOT CONVERGED, MAX ERR/TOL     0.96149E+06    TIME =      0.90

      UOS BLOCK ST-SPLIT MODEL: FSPLIT                                            TIME =      0.90
      SPLIT FRACTIONS:  0.37119D+00    0.10881D+00    0.52000D+00

      UOS BLOCK HC       MODEL: HEATER                                            TIME =      0.90

      CONVERGENCE BLOCK $OLVER04  METHOD: SECANT                                  TIME =      0.90
      ITER   2 For Specs:        CTRL3

  *   WARNING WHILE EXECUTING CONVERGENCE BLOCK: "$OLVER04" (MODEL: "SECANT")   
                                                               (MODSEC.5)       
      EITHER SOLUTION OUTSIDE BOUNDS OR SPEC FUNCTION IS NOT MONOTONIC.         

                    DESIGN SP/
     VAR#  VAR NAME CALCULATOR VARIABLE DESCRIPTION                              NEW X            G(X)             X           ERR/TOL
     ----  -------- --------   ------------------------------               --------------- --------------- --------------- ---------------
        1  VARY     CTRL3   (3) ST-SPLIT.FRAC.FRAC.11                        0.52000000       0.0000000      0.52000000       686671.19      *   

  LOOP $OLVER04 ITER    2:   1 VARS NOT CONVERGED, MAX ERR/TOL     0.68667E+06    TIME =      0.90

      UOS BLOCK ST2      MODEL: COMPR                                             TIME =      0.90
      OUTLET TEMP =   306.0       OUTLET PRES =   5000.       INDICATED HP = -0.2535E+08   BRAKE HP = -0.2535E+08
      ISENTR TEMP =   306.0      CALC ISENTR EFF =  0.8900      ISENTR HP = -0.2848E+08  HP = -0.4217E+08

      CONVERGENCE BLOCK $OLVER06  METHOD: SECANT                                  TIME =      0.90
      ITER   0 For Specs:        CTRL5

      UOS BLOCK COND     MODEL: HEATX                                             TIME =      0.90
      SPECIFICATION: COLD APPROACH TEMP    5.0000    
      FLOW TYPE:     COUNTERCURRENT  
      HOT:  TIN=  306.02  PIN= 5000.0       TOUT=  300.88  POUT= 5000.0    
      COLD: TIN=  288.15  PIN=0.10130E+06   TOUT=  301.02  POUT=0.10130E+06
                              DUTY=0.63593E+08

      CONVERGENCE BLOCK $OLVER06  METHOD: SECANT                                  TIME =      0.90
      ITER   1 For Specs:        CTRL5
      SPEC   1 ERROR =   0.0000                              X =   65.540    

  LOOP $OLVER06 ITER    1:     *** CONVERGED *** , MAX ERR/TOL      0.0000        TIME =      0.90

      UOS BLOCK PUMP1    MODEL: PUMP                                              TIME =      0.90
      VOL-FLOW   =  0.3008E-01 , DELTA P    =  0.9950E+06 , PUMP EFF   =  0.8000    
      FLUID PWR  =  0.2993E+05 , BRAKE PWR  =  0.3741E+05 , ELEC PWR   =  0.3798E+05

      UOS BLOCK MIX      MODEL: MIXER                                             TIME =      0.90

      UOS BLOCK DEA      MODEL: MIXER                                             TIME =      0.90

      CONVERGENCE BLOCK $OLVER05  METHOD: SECANT                                  TIME =      0.91
      ITER   1 For Specs:        CTRL4
      SPEC   1 ERROR =   0.0000                              X =  0.10881    

  LOOP $OLVER05 ITER    1:     *** CONVERGED *** , MAX ERR/TOL      0.0000        TIME =      0.91

      UOS BLOCK GEN2     MODEL: MULT                                              TIME =      0.91

      UOS BLOCK PUMP2    MODEL: PUMP                                              TIME =      0.91
      VOL-FLOW   =  0.9076E-01 , DELTA P    =  0.4007E+07 , PUMP EFF   =  0.9850    
      FLUID PWR  =  0.3637E+06 , BRAKE PWR  =  0.3692E+06 , ELEC PWR   =  0.3748E+06

      UOS BLOCK POWER    MODEL: MIXER                                             TIME =      0.91

      CONVERGENCE BLOCK $OLVER03  METHOD: SECANT                                  TIME =      0.91
      ITER   1 For Specs:        CTRL2
      SPEC   1 ERROR =   914.97     OLD X =  0.76928     NEW X =  0.77212    

  LOOP $OLVER03 ITER    1:   1 VARS NOT CONVERGED, MAX ERR/TOL     0.91497E+06    TIME =      0.91

      CONVERGENCE BLOCK $OLVER02  METHOD: SECANT                                  TIME =      0.91
      ITER   0 For Specs:        CTRL1

      UOS BLOCK CC       MODEL: RSTOIC                                            TIME =      0.91
      NO. TEMP ITER =    6     TEMP =  1425.65    
      KODE = 1  NTRIAL =   2  T =1425.6453  P = 1.500000E+06  V =  1.00000      Q =  0.00000    

      CONVERGENCE BLOCK $OLVER02  METHOD: SECANT                                  TIME =      0.91
      ITER   1 For Specs:        CTRL1
      SPEC   1 ERROR =   2.4953     OLD X =   22.081     NEW X =   22.162    

  LOOP $OLVER02 ITER    1:   1 VARS NOT CONVERGED, MAX ERR/TOL     0.24953E+06    TIME =      0.91

      UOS BLOCK COMP     MODEL: COMPR                                             TIME =      0.91
      OUTLET TEMP =   655.4       OUTLET PRES =  0.1551E+07   INDICATED HP =  0.2427E+09   BRAKE HP =  0.2427E+09
      ISENTR TEMP =   619.8      CALC ISENTR EFF =  0.9000      ISENTR HP =  0.2184E+09  HP =  0.5378E+10

      UOS BLOCK CC       MODEL: RSTOIC                                            TIME =      0.91
      NO. TEMP ITER =    6     TEMP =  1423.15    
      KODE = 1  NTRIAL =   2  T =1423.1510  P = 1.500000E+06  V =  1.00000      Q =  0.00000    

      CONVERGENCE BLOCK $OLVER02  METHOD: SECANT                                  TIME =      0.91
      ITER   2 For Specs:        CTRL1
      SPEC   1 ERROR =  0.10253E-02 OLD X =   22.162     NEW X =   22.162    

  LOOP $OLVER02 ITER    2:   1 VARS NOT CONVERGED, MAX ERR/TOL      102.53        TIME =      0.91

      UOS BLOCK COMP     MODEL: COMPR                                             TIME =      0.91
      OUTLET TEMP =   655.4       OUTLET PRES =  0.1551E+07   INDICATED HP =  0.2427E+09   BRAKE HP =  0.2427E+09
      ISENTR TEMP =   619.8      CALC ISENTR EFF =  0.9000      ISENTR HP =  0.2184E+09  HP =  0.5378E+10

      UOS BLOCK CC       MODEL: RSTOIC                                            TIME =      0.91
      NO. TEMP ITER =    6     TEMP =  1423.15    
      KODE = 1  NTRIAL =   2  T =1423.1500  P = 1.500000E+06  V =  1.00000      Q =  0.00000    

      CONVERGENCE BLOCK $OLVER02  METHOD: SECANT                                  TIME =      0.91
      ITER   3 For Specs:        CTRL1
      SPEC   1 ERROR =  0.33619E-05                          X =   22.162    

  LOOP $OLVER02 ITER    3:     *** CONVERGED *** , MAX ERR/TOL     0.33619        TIME =      0.91

      UOS BLOCK GT       MODEL: COMPR                                             TIME =      0.91
      OUTLET TEMP =   803.7       OUTLET PRES =  0.1034E+06   INDICATED HP = -0.4951E+09   BRAKE HP = -0.4951E+09
      ISENTR TEMP =   746.3      CALC ISENTR EFF =  0.9200      ISENTR HP = -0.5381E+09  HP = -0.1135E+11

      UOS BLOCK SH       MODEL: HEATX                                             TIME =      0.92
      SPECIFICATION: COLD APPROACH TEMP    25.000    
      FLOW TYPE:     COUNTERCURRENT  

  **  ERROR WHILE EXECUTING UNIT OPERATIONS BLOCK: "SH" (MODEL: "HEATX")        
                                                               (HEATX.4)        
      TEMPERATURE CROSSOVER DETECTED                                            
      RE-CALCULATING WITH MINIMUM APPROACH TEMP. SPEC                           
      HOT:  TIN=  803.74  PIN=0.10340E+06   TOUT=  542.41  POUT=0.10270E+06
      COLD: TIN=  517.41  PIN=0.50070E+07   TOUT=  769.81  POUT=0.50020E+07
                              DUTY=0.19123E+09

      UOS BLOCK ST1      MODEL: COMPR                                             TIME =      0.92
      OUTLET TEMP =   597.2       OUTLET PRES =  0.1500E+07   INDICATED HP = -0.2709E+08   BRAKE HP = -0.2709E+08
      ISENTR TEMP =   585.7      CALC ISENTR EFF =  0.9300      ISENTR HP = -0.2913E+08  HP = -0.1214E+09

      CONVERGENCE BLOCK $OLVER05  METHOD: SECANT                                  TIME =      0.92
      ITER   0 For Specs:        CTRL4

      CONVERGENCE BLOCK $OLVER04  METHOD: SECANT                                  TIME =      0.92
      ITER   0 For Specs:        CTRL3

      UOS BLOCK ST-SPLIT MODEL: FSPLIT                                            TIME =      0.92
      SPLIT FRACTIONS:  0.37119D+00    0.10881D+00    0.52000D+00

      UOS BLOCK HC       MODEL: HEATER                                            TIME =      0.92

      CONVERGENCE BLOCK $OLVER04  METHOD: SECANT                                  TIME =      0.92
      ITER   1 For Specs:        CTRL3

  *   WARNING WHILE EXECUTING CONVERGENCE BLOCK: "$OLVER04" (MODEL: "SECANT")   
                                                               (MODSEC.5)       
      EITHER SOLUTION OUTSIDE BOUNDS OR SPEC FUNCTION IS NOT MONOTONIC.         

                    DESIGN SP/
     VAR#  VAR NAME CALCULATOR VARIABLE DESCRIPTION                              NEW X            G(X)             X           ERR/TOL
     ----  -------- --------   ------------------------------               --------------- --------------- --------------- ---------------
        1  VARY     CTRL3   (3) ST-SPLIT.FRAC.FRAC.11                        0.52000000       0.0000000      0.52000000       402426.39      *   

  LOOP $OLVER04 ITER    1:   1 VARS NOT CONVERGED, MAX ERR/TOL     0.40243E+06    TIME =      0.92

      UOS BLOCK ST2      MODEL: COMPR                                             TIME =      0.92
      OUTLET TEMP =   306.0       OUTLET PRES =   5000.       INDICATED HP = -0.2544E+08   BRAKE HP = -0.2544E+08
      ISENTR TEMP =   306.0      CALC ISENTR EFF =  0.8900      ISENTR HP = -0.2858E+08  HP = -0.4231E+08

      CONVERGENCE BLOCK $OLVER06  METHOD: SECANT                                  TIME =      0.92
      ITER   0 For Specs:        CTRL5

      UOS BLOCK COND     MODEL: HEATX                                             TIME =      0.92
      SPECIFICATION: COLD APPROACH TEMP    5.0000    
      FLOW TYPE:     COUNTERCURRENT  
      HOT:  TIN=  306.02  PIN= 5000.0       TOUT=  301.80  POUT= 5000.0    
      COLD: TIN=  288.15  PIN=0.10130E+06   TOUT=  301.02  POUT=0.10130E+06
                              DUTY=0.63593E+08

      CONVERGENCE BLOCK $OLVER06  METHOD: SECANT                                  TIME =      0.92
      ITER   1 For Specs:        CTRL5
      SPEC   1 ERROR =   0.0000                              X =   65.540    

  LOOP $OLVER06 ITER    1:     *** CONVERGED *** , MAX ERR/TOL      0.0000        TIME =      0.92

      UOS BLOCK PUMP1    MODEL: PUMP                                              TIME =      0.92
      VOL-FLOW   =  0.3009E-01 , DELTA P    =  0.9950E+06 , PUMP EFF   =  0.8000    
      FLUID PWR  =  0.2994E+05 , BRAKE PWR  =  0.3742E+05 , ELEC PWR   =  0.3799E+05

      UOS BLOCK MIX      MODEL: MIXER                                             TIME =      0.92

      UOS BLOCK DEA      MODEL: MIXER                                             TIME =      0.92

      CONVERGENCE BLOCK $OLVER05  METHOD: SECANT                                  TIME =      0.92
      ITER   1 For Specs:        CTRL4
      SPEC   1 ERROR =   0.0000                              X =  0.10881    

  LOOP $OLVER05 ITER    1:     *** CONVERGED *** , MAX ERR/TOL      0.0000        TIME =      0.92

      UOS BLOCK GEN2     MODEL: MULT                                              TIME =      0.92

      UOS BLOCK PUMP2    MODEL: PUMP                                              TIME =      0.92
      VOL-FLOW   =  0.9081E-01 , DELTA P    =  0.4007E+07 , PUMP EFF   =  0.9850    
      FLUID PWR  =  0.3639E+06 , BRAKE PWR  =  0.3694E+06 , ELEC PWR   =  0.3751E+06

      UOS BLOCK GEN1     MODEL: MULT                                              TIME =      0.92

      UOS BLOCK POWER    MODEL: MIXER                                             TIME =      0.93

      CONVERGENCE BLOCK $OLVER03  METHOD: SECANT                                  TIME =      0.93
      ITER   2 For Specs:        CTRL2
      SPEC   1 ERROR =  -240.60     OLD X =  0.77212     NEW X =  0.77153    

  LOOP $OLVER03 ITER    2:   1 VARS NOT CONVERGED, MAX ERR/TOL    -0.24060E+06    TIME =      0.93

      CONVERGENCE BLOCK $OLVER02  METHOD: SECANT                                  TIME =      0.93
      ITER   0 For Specs:        CTRL1

      UOS BLOCK CC       MODEL: RSTOIC                                            TIME =      0.93
      NO. TEMP ITER =    6     TEMP =  1422.63    
      KODE = 1  NTRIAL =   2  T =1422.6321  P = 1.500000E+06  V =  1.00000      Q =  0.00000    

      CONVERGENCE BLOCK $OLVER02  METHOD: SECANT                                  TIME =      0.93
      ITER   1 For Specs:        CTRL1
      SPEC   1 ERROR = -0.51788     OLD X =   22.162     NEW X =   22.145    

  LOOP $OLVER02 ITER    1:   1 VARS NOT CONVERGED, MAX ERR/TOL     -51788.        TIME =      0.93

      UOS BLOCK COMP     MODEL: COMPR                                             TIME =      0.93
      OUTLET TEMP =   655.4       OUTLET PRES =  0.1551E+07   INDICATED HP =  0.2425E+09   BRAKE HP =  0.2425E+09
      ISENTR TEMP =   619.8      CALC ISENTR EFF =  0.9000      ISENTR HP =  0.2182E+09  HP =  0.5370E+10

      UOS BLOCK CC       MODEL: RSTOIC                                            TIME =      0.93
      NO. TEMP ITER =    6     TEMP =  1423.15    
      KODE = 1  NTRIAL =   2  T =1423.1483  P = 1.500000E+06  V =  1.00000      Q =  0.00000    

      CONVERGENCE BLOCK $OLVER02  METHOD: SECANT                                  TIME =      0.93
      ITER   2 For Specs:        CTRL1
      SPEC   1 ERROR = -0.16573E-02 OLD X =   22.145     NEW X =   22.145    

  LOOP $OLVER02 ITER    2:   1 VARS NOT CONVERGED, MAX ERR/TOL     -165.73        TIME =      0.93

      UOS BLOCK COMP     MODEL: COMPR                                             TIME =      0.93
      OUTLET TEMP =   655.4       OUTLET PRES =  0.1551E+07   INDICATED HP =  0.2425E+09   BRAKE HP =  0.2425E+09
      ISENTR TEMP =   619.8      CALC ISENTR EFF =  0.9000      ISENTR HP =  0.2182E+09  HP =  0.5370E+10

      UOS BLOCK CC       MODEL: RSTOIC                                            TIME =      0.93
      NO. TEMP ITER =    6     TEMP =  1423.15    
      KODE = 1  NTRIAL =   2  T =1423.1500  P = 1.500000E+06  V =  1.00000      Q =  0.00000    

      CONVERGENCE BLOCK $OLVER02  METHOD: SECANT                                  TIME =      0.93
      ITER   3 For Specs:        CTRL1
      SPEC   1 ERROR =  0.11323E-05                          X =   22.145    

  LOOP $OLVER02 ITER    3:     *** CONVERGED *** , MAX ERR/TOL     0.11323        TIME =      0.93

      UOS BLOCK GT       MODEL: COMPR                                             TIME =      0.93
      OUTLET TEMP =   803.7       OUTLET PRES =  0.1034E+06   INDICATED HP = -0.4947E+09   BRAKE HP = -0.4947E+09
      ISENTR TEMP =   746.3      CALC ISENTR EFF =  0.9200      ISENTR HP = -0.5377E+09  HP = -0.1134E+11

      UOS BLOCK SH       MODEL: HEATX                                             TIME =      0.93
      SPECIFICATION: COLD APPROACH TEMP    25.000    
      FLOW TYPE:     COUNTERCURRENT  

  **  ERROR WHILE EXECUTING UNIT OPERATIONS BLOCK: "SH" (MODEL: "HEATX")        
                                                               (HEATX.4)        
      TEMPERATURE CROSSOVER DETECTED                                            
      RE-CALCULATING WITH MINIMUM APPROACH TEMP. SPEC                           
      HOT:  TIN=  803.74  PIN=0.10340E+06   TOUT=  542.41  POUT=0.10270E+06
      COLD: TIN=  517.41  PIN=0.50070E+07   TOUT=  769.03  POUT=0.50020E+07
                              DUTY=0.19108E+09

      UOS BLOCK ST1      MODEL: COMPR                                             TIME =      0.93
      OUTLET TEMP =   596.5       OUTLET PRES =  0.1500E+07   INDICATED HP = -0.2706E+08   BRAKE HP = -0.2706E+08
      ISENTR TEMP =   585.1      CALC ISENTR EFF =  0.9300      ISENTR HP = -0.2910E+08  HP = -0.1213E+09

      CONVERGENCE BLOCK $OLVER05  METHOD: SECANT                                  TIME =      0.93
      ITER   0 For Specs:        CTRL4

      CONVERGENCE BLOCK $OLVER04  METHOD: SECANT                                  TIME =      0.93
      ITER   0 For Specs:        CTRL3

      UOS BLOCK ST-SPLIT MODEL: FSPLIT                                            TIME =      0.93
      SPLIT FRACTIONS:  0.37119D+00    0.10881D+00    0.52000D+00

      UOS BLOCK HC       MODEL: HEATER                                            TIME =      0.93

      CONVERGENCE BLOCK $OLVER04  METHOD: SECANT                                  TIME =      0.93
      ITER   1 For Specs:        CTRL3
      SPEC   1 ERROR =   461.62     OLD X =  0.52000     NEW X =  0.51900    

  LOOP $OLVER04 ITER    1:   1 VARS NOT CONVERGED, MAX ERR/TOL     0.46162E+06    TIME =      0.93

      UOS BLOCK ST-SPLIT MODEL: FSPLIT                                            TIME =      0.93
      SPLIT FRACTIONS:  0.37219D+00    0.10881D+00    0.51900D+00

      UOS BLOCK HC       MODEL: HEATER                                            TIME =      0.93

      CONVERGENCE BLOCK $OLVER04  METHOD: SECANT                                  TIME =      0.93
      ITER   2 For Specs:        CTRL3

  **  ERROR WHILE EXECUTING CONVERGENCE BLOCK: "$OLVER04" (MODEL: "SECANT")     
                                                               (MODSEC.9)       
      EITHER SOLUTION OUTSIDE BOUNDS OR SPEC FUNCTION IS NOT MONOTONIC.         
      THE CONVERGENCE LOOP WILL BE EVALUATED ONCE MORE.                         
      SPEC   1 ERROR =   653.04     OLD X =  0.51900     NEW X =  0.52000    

  LOOP $OLVER04 ITER    2:   1 VARS NOT CONVERGED, MAX ERR/TOL     0.65304E+06    TIME =      0.96

      UOS BLOCK ST-SPLIT MODEL: FSPLIT                                            TIME =      0.96
      SPLIT FRACTIONS:  0.37119D+00    0.10881D+00    0.52000D+00

      UOS BLOCK HC       MODEL: HEATER                                            TIME =      0.99

      CONVERGENCE BLOCK $OLVER04  METHOD: SECANT                                  TIME =      0.99
      ITER   3 For Specs:        CTRL3
      THE CONVERGENCE LOOP WAS EVALUATED ONCE MORE.

                    DESIGN SP/
     VAR#  VAR NAME CALCULATOR VARIABLE DESCRIPTION                              NEW X            G(X)             X           ERR/TOL
     ----  -------- --------   ------------------------------               --------------- --------------- --------------- ---------------
        1  VARY     CTRL3   (3) ST-SPLIT.FRAC.FRAC.11                        0.52000000       0.0000000      0.52000000       461615.63      *   

  LOOP $OLVER04 ITER    3:   1 VARS NOT CONVERGED, MAX ERR/TOL     0.46162E+06    TIME =      0.99

      UOS BLOCK ST2      MODEL: COMPR                                             TIME =      0.99
      OUTLET TEMP =   306.0       OUTLET PRES =   5000.       INDICATED HP = -0.2542E+08   BRAKE HP = -0.2542E+08
      ISENTR TEMP =   306.0      CALC ISENTR EFF =  0.8900      ISENTR HP = -0.2856E+08  HP = -0.4228E+08

      CONVERGENCE BLOCK $OLVER06  METHOD: SECANT                                  TIME =      0.99
      ITER   0 For Specs:        CTRL5

      UOS BLOCK COND     MODEL: HEATX                                             TIME =      0.99
      SPECIFICATION: COLD APPROACH TEMP    5.0000    
      FLOW TYPE:     COUNTERCURRENT  
      HOT:  TIN=  306.02  PIN= 5000.0       TOUT=  301.61  POUT= 5000.0    
      COLD: TIN=  288.15  PIN=0.10130E+06   TOUT=  301.02  POUT=0.10130E+06
                              DUTY=0.63593E+08

      CONVERGENCE BLOCK $OLVER06  METHOD: SECANT                                  TIME =      1.00
      ITER   1 For Specs:        CTRL5
      SPEC   1 ERROR =   0.0000                              X =   65.540    

  LOOP $OLVER06 ITER    1:     *** CONVERGED *** , MAX ERR/TOL      0.0000        TIME =      1.00

      UOS BLOCK PUMP1    MODEL: PUMP                                              TIME =      1.00
      VOL-FLOW   =  0.3008E-01 , DELTA P    =  0.9950E+06 , PUMP EFF   =  0.8000    
      FLUID PWR  =  0.2993E+05 , BRAKE PWR  =  0.3742E+05 , ELEC PWR   =  0.3799E+05

      UOS BLOCK MIX      MODEL: MIXER                                             TIME =      1.00

      UOS BLOCK DEA      MODEL: MIXER                                             TIME =      1.00

      CONVERGENCE BLOCK $OLVER05  METHOD: SECANT                                  TIME =      1.00
      ITER   1 For Specs:        CTRL4
      SPEC   1 ERROR =   0.0000                              X =  0.10881    

  LOOP $OLVER05 ITER    1:     *** CONVERGED *** , MAX ERR/TOL      0.0000        TIME =      1.00

      UOS BLOCK GEN2     MODEL: MULT                                              TIME =      1.00

      UOS BLOCK PUMP2    MODEL: PUMP                                              TIME =      1.00
      VOL-FLOW   =  0.9080E-01 , DELTA P    =  0.4007E+07 , PUMP EFF   =  0.9850    
      FLUID PWR  =  0.3638E+06 , BRAKE PWR  =  0.3694E+06 , ELEC PWR   =  0.3750E+06

      UOS BLOCK GEN1     MODEL: MULT                                              TIME =      1.00

      UOS BLOCK POWER    MODEL: MIXER                                             TIME =      1.00

      CONVERGENCE BLOCK $OLVER03  METHOD: SECANT                                  TIME =      1.00
      ITER   3 For Specs:        CTRL2
      SPEC   1 ERROR =  0.29849E-01 OLD X =  0.77153     NEW X =  0.77153    

  LOOP $OLVER03 ITER    3:   1 VARS NOT CONVERGED, MAX ERR/TOL      29.849        TIME =      1.00

      CONVERGENCE BLOCK $OLVER02  METHOD: SECANT                                  TIME =      1.00
      ITER   0 For Specs:        CTRL1

      UOS BLOCK CC       MODEL: RSTOIC                                            TIME =      1.00
      NO. TEMP ITER =    6     TEMP =  1423.15    
      KODE = 1  NTRIAL =   2  T =1423.1501  P = 1.500000E+06  V =  1.00000      Q =  0.00000    

      CONVERGENCE BLOCK $OLVER02  METHOD: SECANT                                  TIME =      1.00
      ITER   1 For Specs:        CTRL1
      SPEC   1 ERROR =  0.65418E-04 OLD X =   22.145     NEW X =   22.145    

  LOOP $OLVER02 ITER    1:   1 VARS NOT CONVERGED, MAX ERR/TOL      6.5418        TIME =      1.00

      UOS BLOCK COMP     MODEL: COMPR                                             TIME =      1.00
      OUTLET TEMP =   655.4       OUTLET PRES =  0.1551E+07   INDICATED HP =  0.2425E+09   BRAKE HP =  0.2425E+09
[...]
      NO. TEMP ITER =    5     TEMP =  766.824    
      KODE = 1  NTRIAL =   2  T = 766.8244  P =  103400.      V =  1.00000      Q =  0.00000    
      NO. TEMP ITER =    5     TEMP =  763.453    
      KODE = 1  NTRIAL =   2  T = 763.4528  P =  103400.      V =  1.00000      Q =  0.00000    
      NO. TEMP ITER =    5     TEMP =  760.079    
      KODE = 1  NTRIAL =   2  T = 760.0785  P =  103400.      V =  1.00000      Q =  0.00000    
      NO. TEMP ITER =    5     TEMP =  756.702    
      KODE = 1  NTRIAL =   2  T = 756.7016  P =  103400.      V =  1.00000      Q =  0.00000    
      NO. TEMP ITER =    5     TEMP =  753.322    
      KODE = 1  NTRIAL =   2  T = 753.3220  P =  103400.      V =  1.00000      Q =  0.00000    
      NO. TEMP ITER =    5     TEMP =  749.940    
      KODE = 1  NTRIAL =   2  T = 749.9397  P =  103400.      V =  1.00000      Q =  0.00000    
      NO. TEMP ITER =    5     TEMP =  746.555    
      KODE = 1  NTRIAL =   2  T = 746.5547  P =  103400.      V =  1.00000      Q =  0.00000    
      NO. TEMP ITER =    5     TEMP =  743.167    
      KODE = 1  NTRIAL =   2  T = 743.1669  P =  103400.      V =  1.00000      Q =  0.00000    
      NO. TEMP ITER =    5     TEMP =  739.777    
      KODE = 1  NTRIAL =   2  T = 739.7765  P =  103400.      V =  1.00000      Q =  0.00000    
      NO. TEMP ITER =    5     TEMP =  736.383    
      KODE = 1  NTRIAL =   2  T = 736.3834  P =  103400.      V =  1.00000      Q =  0.00000    
      NO. TEMP ITER =    5     TEMP =  732.987    
      KODE = 1  NTRIAL =   2  T = 732.9875  P =  103400.      V =  1.00000      Q =  0.00000    

      BEGIN COLD-TQCURVE INLET   

      BEGIN HOT-TQCURVE  INLET   
      END HEATX TQ-CURVE CALCULATIONS FOR BLOCK SH      

      GENERATING RESULTS FOR UOS BLOCK EVA      MODEL: HEATX                      TIME =      1.55
      SPECIFICATION: COLD VAPOR FRACTION   1.0000    
      FLOW TYPE:     COUNTERCURRENT  
      HOT:  TIN=  732.99  PIN=0.10270E+06   TOUT=  546.68  POUT=0.10200E+06
      COLD: TIN=  531.15  PIN=0.50050E+07   TOUT=  537.15  POUT=0.50050E+07
      AREA= 2228.6           DUTY=0.13475E+09       FT=1.00000

      BEGIN HEATX TQ-CURVE CALCULATIONS FOR BLOCK EVA     

      BEGIN COLD-TQCURVE INLET   

      BEGIN HOT-TQCURVE  INLET   
      NO. TEMP ITER =    5     TEMP =  732.987    
      KODE = 1  NTRIAL =   2  T = 732.9875  P =  102700.      V =  1.00000      Q =  0.00000    
      NO. TEMP ITER =    5     TEMP =  724.301    
      KODE = 1  NTRIAL =   2  T = 724.3014  P =  102700.      V =  1.00000      Q =  0.00000    
      NO. TEMP ITER =    5     TEMP =  715.597    
      KODE = 1  NTRIAL =   2  T = 715.5973  P =  102700.      V =  1.00000      Q =  0.00000    
      NO. TEMP ITER =    5     TEMP =  706.875    
      KODE = 1  NTRIAL =   2  T = 706.8751  P =  102700.      V =  1.00000      Q =  0.00000    
      NO. TEMP ITER =    5     TEMP =  698.135    
      KODE = 1  NTRIAL =   2  T = 698.1345  P =  102700.      V =  1.00000      Q =  0.00000    
      NO. TEMP ITER =    5     TEMP =  689.376    
      KODE = 1  NTRIAL =   2  T = 689.3756  P =  102700.      V =  1.00000      Q =  0.00000    
      NO. TEMP ITER =    5     TEMP =  680.598    
      KODE = 1  NTRIAL =   2  T = 680.5982  P =  102700.      V =  1.00000      Q =  0.00000    
      NO. TEMP ITER =    6     TEMP =  671.802    
      KODE = 1  NTRIAL =   2  T = 671.8022  P =  102700.      V =  1.00000      Q =  0.00000    
      NO. TEMP ITER =    6     TEMP =  662.987    
      KODE = 1  NTRIAL =   2  T = 662.9875  P =  102700.      V =  1.00000      Q =  0.00000    
      NO. TEMP ITER =    6     TEMP =  654.154    
      KODE = 1  NTRIAL =   2  T = 654.1540  P =  102700.      V =  1.00000      Q =  0.00000    
      NO. TEMP ITER =    6     TEMP =  645.302    
      KODE = 1  NTRIAL =   2  T = 645.3016  P =  102700.      V =  1.00000      Q =  0.00000    
      NO. TEMP ITER =    6     TEMP =  636.430    
      KODE = 1  NTRIAL =   2  T = 636.4304  P =  102700.      V =  1.00000      Q =  0.00000    
      NO. TEMP ITER =    6     TEMP =  627.540    
      KODE = 1  NTRIAL =   2  T = 627.5402  P =  102700.      V =  1.00000      Q =  0.00000    
      NO. TEMP ITER =    6     TEMP =  618.631    
      KODE = 1  NTRIAL =   2  T = 618.6311  P =  102700.      V =  1.00000      Q =  0.00000    
      NO. TEMP ITER =    6     TEMP =  609.703    
      KODE = 1  NTRIAL =   2  T = 609.7030  P =  102700.      V =  1.00000      Q =  0.00000    
      NO. TEMP ITER =    6     TEMP =  600.756    
      KODE = 1  NTRIAL =   2  T = 600.7559  P =  102700.      V =  1.00000      Q =  0.00000    
      NO. TEMP ITER =    6     TEMP =  591.790    
      KODE = 1  NTRIAL =   2  T = 591.7898  P =  102700.      V =  1.00000      Q =  0.00000    
      NO. TEMP ITER =    5     TEMP =  582.805    
      KODE = 1  NTRIAL =   2  T = 582.8047  P =  102700.      V =  1.00000      Q =  0.00000    
      NO. TEMP ITER =    5     TEMP =  573.801    
      KODE = 1  NTRIAL =   2  T = 573.8008  P =  102700.      V =  1.00000      Q =  0.00000    
      NO. TEMP ITER =    5     TEMP =  564.778    
      KODE = 1  NTRIAL =   2  T = 564.7781  P =  102700.      V =  1.00000      Q =  0.00000    
      NO. TEMP ITER =    5     TEMP =  555.737    
      KODE = 1  NTRIAL =   2  T = 555.7367  P =  102700.      V =  1.00000      Q =  0.00000    
      NO. TEMP ITER =    5     TEMP =  550.096    
      KODE = 1  NTRIAL =   2  T = 550.0965  P =  102700.      V =  1.00000      Q =  0.00000    
      NO. TEMP ITER =    5     TEMP =  546.677    
      KODE = 1  NTRIAL =   2  T = 546.6766  P =  102700.      V =  1.00000      Q =  0.00000    

      BEGIN COLD-TQCURVE INLET   

      BEGIN HOT-TQCURVE  INLET   
      END HEATX TQ-CURVE CALCULATIONS FOR BLOCK EVA     

      GENERATING RESULTS FOR UOS BLOCK ECO      MODEL: HEATX                      TIME =      1.56
      SPECIFICATION: COLD OUTLET TEMP      531.15    
      FLOW TYPE:     COUNTERCURRENT  
      HOT:  TIN=  546.68  PIN=0.10200E+06   TOUT=  505.66  POUT=0.10130E+06
      COLD: TIN=  453.61  PIN=0.50070E+07   TOUT=  531.15  POUT=0.50050E+07
      AREA= 1125.7           DUTY=0.28891E+08       FT=1.00000

      BEGIN HEATX TQ-CURVE CALCULATIONS FOR BLOCK ECO     

      BEGIN COLD-TQCURVE INLET   

      BEGIN HOT-TQCURVE  INLET   
      NO. TEMP ITER =    5     TEMP =  546.677    
      KODE = 1  NTRIAL =   2  T = 546.6766  P =  102000.      V =  1.00000      Q =  0.00000    
      NO. TEMP ITER =    5     TEMP =  544.732    
      KODE = 1  NTRIAL =   2  T = 544.7317  P =  102000.      V =  1.00000      Q =  0.00000    
      NO. TEMP ITER =    5     TEMP =  542.786    
      KODE = 1  NTRIAL =   2  T = 542.7860  P =  102000.      V =  1.00000      Q =  0.00000    
      NO. TEMP ITER =    5     TEMP =  540.839    
      KODE = 1  NTRIAL =   2  T = 540.8394  P =  102000.      V =  1.00000      Q =  0.00000    
      NO. TEMP ITER =    5     TEMP =  538.892    
      KODE = 1  NTRIAL =   2  T = 538.8919  P =  102000.      V =  1.00000      Q =  0.00000    
      NO. TEMP ITER =    5     TEMP =  536.944    
      KODE = 1  NTRIAL =   2  T = 536.9436  P =  102000.      V =  1.00000      Q =  0.00000    
      NO. TEMP ITER =    5     TEMP =  534.995    
      KODE = 1  NTRIAL =   2  T = 534.9945  P =  102000.      V =  1.00000      Q =  0.00000    
      NO. TEMP ITER =    5     TEMP =  533.045    
      KODE = 1  NTRIAL =   2  T = 533.0445  P =  102000.      V =  1.00000      Q =  0.00000    
      NO. TEMP ITER =    5     TEMP =  531.094    
      KODE = 1  NTRIAL =   2  T = 531.0937  P =  102000.      V =  1.00000      Q =  0.00000    
      NO. TEMP ITER =    5     TEMP =  529.142    
      KODE = 1  NTRIAL =   2  T = 529.1421  P =  102000.      V =  1.00000      Q =  0.00000    
      NO. TEMP ITER =    5     TEMP =  527.190    
      KODE = 1  NTRIAL =   2  T = 527.1896  P =  102000.      V =  1.00000      Q =  0.00000    
      NO. TEMP ITER =    5     TEMP =  525.236    
      KODE = 1  NTRIAL =   2  T = 525.2363  P =  102000.      V =  1.00000      Q =  0.00000    
      NO. TEMP ITER =    5     TEMP =  523.282    
      KODE = 1  NTRIAL =   2  T = 523.2821  P =  102000.      V =  1.00000      Q =  0.00000    
      NO. TEMP ITER =    5     TEMP =  521.327    
      KODE = 1  NTRIAL =   2  T = 521.3271  P =  102000.      V =  1.00000      Q =  0.00000    
      NO. TEMP ITER =    5     TEMP =  519.371    
      KODE = 1  NTRIAL =   2  T = 519.3713  P =  102000.      V =  1.00000      Q =  0.00000    
      NO. TEMP ITER =    5     TEMP =  517.415    
      KODE = 1  NTRIAL =   2  T = 517.4147  P =  102000.      V =  1.00000      Q =  0.00000    
      NO. TEMP ITER =    5     TEMP =  515.457    
      KODE = 1  NTRIAL =   2  T = 515.4572  P =  102000.      V =  1.00000      Q =  0.00000    
      NO. TEMP ITER =    5     TEMP =  513.499    
      KODE = 1  NTRIAL =   2  T = 513.4990  P =  102000.      V =  1.00000      Q =  0.00000    
      NO. TEMP ITER =    5     TEMP =  511.540    
      KODE = 1  NTRIAL =   2  T = 511.5399  P =  102000.      V =  1.00000      Q =  0.00000    
      NO. TEMP ITER =    5     TEMP =  509.580    
      KODE = 1  NTRIAL =   2  T = 509.5799  P =  102000.      V =  1.00000      Q =  0.00000    
      NO. TEMP ITER =    5     TEMP =  507.619    
      KODE = 1  NTRIAL =   2  T = 507.6192  P =  102000.      V =  1.00000      Q =  0.00000    
      NO. TEMP ITER =    5     TEMP =  505.658    
      KODE = 1  NTRIAL =   2  T = 505.6577  P =  102000.      V =  1.00000      Q =  0.00000    

      BEGIN COLD-TQCURVE INLET   

      BEGIN HOT-TQCURVE  INLET   
      END HEATX TQ-CURVE CALCULATIONS FOR BLOCK ECO     

      GENERATING RESULTS FOR UOS BLOCK COND     MODEL: HEATX                      TIME =      1.56
      SPECIFICATION: COLD APPROACH TEMP    5.0000    
      FLOW TYPE:     COUNTERCURRENT  
      HOT:  TIN=  306.02  PIN= 5000.0       TOUT=  306.02  POUT= 5000.0    
      COLD: TIN=  288.15  PIN=0.10130E+06   TOUT=  301.02  POUT=0.10130E+06
      AREA= 7403.2           DUTY=0.63594E+08       FT=1.00000

      BEGIN HEATX TQ-CURVE CALCULATIONS FOR BLOCK COND    

      BEGIN COLD-TQCURVE INLET   

      BEGIN HOT-TQCURVE  INLET   

      BEGIN COLD-TQCURVE INLET   

      BEGIN HOT-TQCURVE  INLET   
      END HEATX TQ-CURVE CALCULATIONS FOR BLOCK COND    

      GENERATING RESULTS FOR UOS BLOCK PUMP1    MODEL: PUMP                       TIME =      1.57
      VOL-FLOW   =  0.3025E-01 , DELTA P    =  0.9950E+06 , PUMP EFF   =  0.8000    
      FLUID PWR  =  0.3009E+05 , BRAKE PWR  =  0.3762E+05 , ELEC PWR   =  0.3819E+05
      NPSH AVAIL =   0.000    

      GENERATING RESULTS FOR UOS BLOCK HC       MODEL: HEATER                     TIME =      1.57

      GENERATING RESULTS FOR UOS BLOCK PUMP2    MODEL: PUMP                       TIME =      1.57
      VOL-FLOW   =  0.9100E-01 , DELTA P    =  0.4007E+07 , PUMP EFF   =  0.9850    
      FLUID PWR  =  0.3646E+06 , BRAKE PWR  =  0.3702E+06 , ELEC PWR   =  0.3758E+06
      NPSH AVAIL =   0.000    
      KODE = 2  NTRIAL =   1  T = 288.1500  P =  101300.      V =  1.00000      Q =-1.028230E-08
      KODE = 2  NTRIAL =   1  T = 288.1500  P =  101300.      V =  1.00000      Q =-2.417708E+08
      KODE = 2  NTRIAL =   1  T = 288.1500  P =  101300.      V =  1.00000      Q =  0.00000    
      KODE = 2  NTRIAL =   1  T = 288.1500  P =  101300.      V = 0.938521      Q =-9.215449E+08
      KODE = 2  NTRIAL =   1  T = 288.1500  P =  101300.      V = 0.938521      Q =-4.283065E+08
      KODE = 2  NTRIAL =   1  T = 288.1500  P =  101300.      V = 0.938521      Q =-3.755493E+08
      KODE = 2  NTRIAL =   1  T = 288.1500  P =  101300.      V = 0.938521      Q =-2.407991E+08
      KODE = 2  NTRIAL =   1  T = 288.1500  P =  101300.      V = 0.938521      Q =-2.119084E+08

 STREAM E1       STREAM ATTR WORK      -247946960.540174      1.000000000000000E+35

 STREAM 12      
        SUBSTREAM MIXED     F =   1.67000909671598      T =   604.602644429098      P =   1500000.00000000    
                            H =  -231736940.384620      V =   1.00000000000000      L =   0.00000000000000    
                            ENTROPY =  -2390.33377953522      DENSITY =   5.54354464051695      MW =   18.0152800000000    
        H2O        1.67000909671598      N2         0.00000000000000      O2         0.00000000000000    
        CO2        0.00000000000000      AR         0.00000000000000      CH4        0.00000000000000    

 STREAM 10      
        SUBSTREAM MIXED     F =  0.487466629908431      T =   604.602644429098      P =   1500000.00000000    
                            H =  -231736940.384620      V =   1.00000000000000      L =   0.00000000000000    
                            ENTROPY =  -2390.33377953522      DENSITY =   5.54354464051695      MW =   18.0152800000000    
        H2O       0.487466629908431      N2         0.00000000000000      O2         0.00000000000000    
        CO2        0.00000000000000      AR         0.00000000000000      CH4        0.00000000000000    

 STREAM 11      
        SUBSTREAM MIXED     F =   2.32359823570091      T =   604.602644429098      P =   1500000.00000000    
                            H =  -231736940.384620      V =   1.00000000000000      L =   0.00000000000000    
                            ENTROPY =  -2390.33377953522      DENSITY =   5.54354464051695      MW =   18.0152800000000    
        H2O        2.32359823570091      N2         0.00000000000000      O2         0.00000000000000    
        CO2        0.00000000000000      AR         0.00000000000000      CH4        0.00000000000000    

      BEGIN HEATX TQ-CURVE REPORT FOR BLOCK ECO     

      BEGIN COLD-TQCURVE INLET   

      BEGIN HOT-TQCURVE  INLET   
      END HEATX TQ-CURVE REPORT FOR BLOCK ECO     

 STREAM 8       
        SUBSTREAM MIXED     F =   22.8503683741934      T =   505.657666262795      P =   101300.000000000    
                            H =  -25747565.4828697      V =   1.00000000000000      L =   0.00000000000000    
                            ENTROPY =   688.183598932367      DENSITY =  0.684818567369826      MW =   28.4216924240350    
        H2O        1.76261783957932      N2         17.0688160155333      O2         3.03946382014029    
        CO2       0.775040954798898      AR        0.204429744141619      CH4        0.00000000000000    

 STREAM 22      
        SUBSTREAM MIXED     F =   4.48107396232532      T =   531.150000000000      P =   5005000.00000000    
                            H =  -267453915.070298      V =   0.00000000000000      L =   1.00000000000000    
                            ENTROPY =  -6562.53058457914      DENSITY =   787.336865641516      MW =   18.0152800000000    
        H2O        4.48107396232532      N2         0.00000000000000      O2         0.00000000000000    
        CO2        0.00000000000000      AR         0.00000000000000      CH4        0.00000000000000    

      BEGIN HEATX TQ-CURVE REPORT FOR BLOCK EVA     

      BEGIN COLD-TQCURVE INLET   

      BEGIN HOT-TQCURVE  INLET   
      END HEATX TQ-CURVE REPORT FOR BLOCK EVA     

 STREAM 7       
        SUBSTREAM MIXED     F =   22.8503683741934      T =   546.676630557501      P =   102000.000000000    
                            H =  -24483222.3948708      V =   1.00000000000000      L =   0.00000000000000    
                            ENTROPY =   770.752677569405      DENSITY =  0.637811492177202      MW =   28.4216924240350    
        H2O        1.76261783957932      N2         17.0688160155333      O2         3.03946382014029    
        CO2       0.775040954798898      AR        0.204429744141619      CH4        0.00000000000000    

 STREAM 23      
        SUBSTREAM MIXED     F =   4.48107396232532      T =   537.153199779639      P =   5005000.00000000    
                            H =  -237382958.621247      V =   1.00000000000000      L =   0.00000000000000    
                            ENTROPY =  -3454.73923889497      DENSITY =   25.3780115709338      MW =   18.0152800000000    
        H2O        4.48107396232532      N2         0.00000000000000      O2         0.00000000000000    
        CO2        0.00000000000000      AR         0.00000000000000      CH4        0.00000000000000    

 Report Writer entered                                                            Time =     11.52

      BEGIN HEATX TQ-CURVE REPORT FOR BLOCK COND    

      BEGIN COLD-TQCURVE INLET   

      BEGIN HOT-TQCURVE  INLET   
      END HEATX TQ-CURVE REPORT FOR BLOCK COND    

      BEGIN HEATX TQ-CURVE REPORT FOR BLOCK ECO     

      BEGIN COLD-TQCURVE INLET   

      BEGIN HOT-TQCURVE  INLET   
      END HEATX TQ-CURVE REPORT FOR BLOCK ECO     

      BEGIN HEATX TQ-CURVE REPORT FOR BLOCK EVA     

      BEGIN COLD-TQCURVE INLET   

      BEGIN HOT-TQCURVE  INLET   
      END HEATX TQ-CURVE REPORT FOR BLOCK EVA     

      BEGIN HEATX TQ-CURVE REPORT FOR BLOCK SH      

      BEGIN COLD-TQCURVE INLET   

      BEGIN HOT-TQCURVE  INLET   
      END HEATX TQ-CURVE REPORT FOR BLOCK SH      
      KODE = 2  NTRIAL =   1  T = 288.1500  P =  101300.      V =  1.00000      Q =-1.028230E-08
      KODE = 2  NTRIAL =   1  T = 288.1500  P =  101300.      V =  1.00000      Q =-2.417708E+08
      KODE = 2  NTRIAL =   1  T = 288.1500  P =  101300.      V =  1.00000      Q =  0.00000    
      KODE = 2  NTRIAL =   1  T = 288.1500  P =  101300.      V = 0.938521      Q =-9.215449E+08
      KODE = 2  NTRIAL =   1  T = 288.1500  P =  101300.      V = 0.938521      Q =-4.283065E+08
      KODE = 2  NTRIAL =   1  T = 288.1500  P =  101300.      V = 0.938521      Q =-3.755493E+08
      KODE = 2  NTRIAL =   1  T = 288.1500  P =  101300.      V = 0.938521      Q =-2.407991E+08
      KODE = 2  NTRIAL =   1  T = 288.1500  P =  101300.      V = 0.938521      Q =-2.119084E+08

 Results generated                                                                Time =     11.58

 Report Writer entered                                                            Time =     12.03

      BEGIN HEATX TQ-CURVE REPORT FOR BLOCK COND    

      BEGIN COLD-TQCURVE INLET   

      BEGIN HOT-TQCURVE  INLET   
      END HEATX TQ-CURVE REPORT FOR BLOCK COND    

      BEGIN HEATX TQ-CURVE REPORT FOR BLOCK ECO     

      BEGIN COLD-TQCURVE INLET   

      BEGIN HOT-TQCURVE  INLET   
      END HEATX TQ-CURVE REPORT FOR BLOCK ECO     

      BEGIN HEATX TQ-CURVE REPORT FOR BLOCK EVA     

      BEGIN COLD-TQCURVE INLET   

      BEGIN HOT-TQCURVE  INLET   
      END HEATX TQ-CURVE REPORT FOR BLOCK EVA     

      BEGIN HEATX TQ-CURVE REPORT FOR BLOCK SH      

      BEGIN COLD-TQCURVE INLET   

      BEGIN HOT-TQCURVE  INLET   
      END HEATX TQ-CURVE REPORT FOR BLOCK SH      
      KODE = 2  NTRIAL =   1  T = 288.1500  P =  101300.      V =  1.00000      Q =-1.028230E-08
      KODE = 2  NTRIAL =   1  T = 288.1500  P =  101300.      V =  1.00000      Q =-2.417708E+08
      KODE = 2  NTRIAL =   1  T = 288.1500  P =  101300.      V =  1.00000      Q =  0.00000    
      KODE = 2  NTRIAL =   1  T = 288.1500  P =  101300.      V = 0.938521      Q =-9.215449E+08
      KODE = 2  NTRIAL =   1  T = 288.1500  P =  101300.      V = 0.938521      Q =-4.283065E+08
      KODE = 2  NTRIAL =   1  T = 288.1500  P =  101300.      V = 0.938521      Q =-3.755493E+08
      KODE = 2  NTRIAL =   1  T = 288.1500  P =  101300.      V = 0.938521      Q =-2.407991E+08
      KODE = 2  NTRIAL =   1  T = 288.1500  P =  101300.      V = 0.938521      Q =-2.119084E+08

 Results generated                                                                Time =     12.08

RUN SAVED



 *** SUMMARY OF ERRORS ***

                  PHYSICAL
                  PROPERTY  SYSTEM  SIMULATION
 TERMINAL ERRORS      0        0         0
   SEVERE ERRORS      0        0         0
          ERRORS      0        0        20
        WARNINGS      0        0         9
